
  Mrv2016 04192109512D          

 45 48  0  0  0  0            999 V2000
    3.7782    2.5127    0.0000 N   0  0  0  0  0  0  0  0  0  0  0  0
    3.0637    2.1002    0.0000 C   0  0  0  0  0  0  0  0  0  0  0  0
    3.0637    1.2752    0.0000 C   0  0  0  0  0  0  0  0  0  0  0  0
    3.7782    0.8627    0.0000 C   0  0  0  0  0  0  0  0  0  0  0  0
    3.7782    0.0377    0.0000 C   0  0  0  0  0  0  0  0  0  0  0  0
    3.0637   -0.3748    0.0000 C   0  0  0  0  0  0  0  0  0  0  0  0
    2.3493    0.0377    0.0000 C   0  0  0  0  0  0  0  0  0  0  0  0
    2.3493    0.8627    0.0000 C   0  0  0  0  0  0  0  0  0  0  0  0
    1.6348    1.2752    0.0000 C   0  0  0  0  0  0  0  0  0  0  0  0
    0.9203    0.8627    0.0000 C   0  0  0  0  0  0  0  0  0  0  0  0
    0.2059    1.2752    0.0000 N   0  0  0  0  0  0  0  0  0  0  0  0
   -0.5086    0.8627    0.0000 C   0  0  0  0  0  0  0  0  0  0  0  0
   -0.5086    0.0377    0.0000 C   0  0  0  0  0  0  0  0  0  0  0  0
   -1.2231   -0.3748    0.0000 N   0  0  0  0  0  0  0  0  0  0  0  0
   -1.9376    0.0377    0.0000 C   0  0  0  0  0  0  0  0  0  0  0  0
   -1.9376    0.8627    0.0000 C   0  0  0  0  0  0  0  0  0  0  0  0
   -1.2231    1.2752    0.0000 C   0  0  0  0  0  0  0  0  0  0  0  0
    0.2059    2.1002    0.0000 C   0  0  0  0  0  0  0  0  0  0  0  0
   -0.5086    2.5127    0.0000 O   0  0  0  0  0  0  0  0  0  0  0  0
    0.9203    2.5127    0.0000 C   0  0  0  0  0  0  0  0  0  0  0  0
    1.6348    2.1002    0.0000 C   0  0  0  0  0  0  0  0  0  0  0  0
    0.9203    3.3377    0.0000 C   0  0  0  0  0  0  0  0  0  0  0  0
    0.2059    3.7502    0.0000 N   0  0  0  0  0  0  0  0  0  0  0  0
    0.2059    4.5752    0.0000 C   0  0  0  0  0  0  0  0  0  0  0  0
   -0.5086    4.9877    0.0000 Cl  0  0  0  0  0  0  0  0  0  0  0  0
    0.9203    4.9877    0.0000 C   0  0  0  0  0  0  0  0  0  0  0  0
    1.6348    4.5752    0.0000 C   0  0  0  0  0  0  0  0  0  0  0  0
    2.3493    4.9877    0.0000 Cl  0  0  0  0  0  0  0  0  0  0  0  0
    1.6348    3.7502    0.0000 C   0  0  0  0  0  0  0  0  0  0  0  0
    4.4927    2.1002    0.0000 H   0  0  0  0  0  0  0  0  0  0  0  0
    3.7782    3.3377    0.0000 H   0  0  0  0  0  0  0  0  0  0  0  0
    2.6104    2.7895    0.0000 H   0  0  0  0  0  0  0  0  0  0  0  0
    2.2401    2.1482    0.0000 H   0  0  0  0  0  0  0  0  0  0  0  0
    4.4927    1.2752    0.0000 H   0  0  0  0  0  0  0  0  0  0  0  0
    4.4927   -0.3748    0.0000 H   0  0  0  0  0  0  0  0  0  0  0  0
    3.0637   -1.1998    0.0000 H   0  0  0  0  0  0  0  0  0  0  0  0
    1.6348   -0.3748    0.0000 H   0  0  0  0  0  0  0  0  0  0  0  0
    0.9203    0.0377    0.0000 H   0  0  0  0  0  0  0  0  0  0  0  0
    0.2059   -0.3748    0.0000 H   0  0  0  0  0  0  0  0  0  0  0  0
   -2.6520   -0.3748    0.0000 H   0  0  0  0  0  0  0  0  0  0  0  0
   -2.6520    1.2752    0.0000 H   0  0  0  0  0  0  0  0  0  0  0  0
   -1.2231    2.1002    0.0000 H   0  0  0  0  0  0  0  0  0  0  0  0
    1.8167    2.9049    0.0000 H   0  0  0  0  0  0  0  0  0  0  0  0
    0.9203    5.8127    0.0000 H   0  0  0  0  0  0  0  0  0  0  0  0
    2.4552    3.8374    0.0000 H   0  0  0  0  0  0  0  0  0  0  0  0
  1  2  1  0  0  0  0
  2  3  1  0  0  0  0
  3  4  4  0  0  0  0
  4  5  4  0  0  0  0
  5  6  4  0  0  0  0
  6  7  4  0  0  0  0
  7  8  4  0  0  0  0
  8  9  1  0  0  0  0
  9 10  2  0  0  0  0
 10 11  1  0  0  0  0
 11 12  1  0  0  0  0
 12 13  4  0  0  0  0
 13 14  4  0  0  0  0
 14 15  4  0  0  0  0
 15 16  4  0  0  0  0
 16 17  4  0  0  0  0
 11 18  1  0  0  0  0
 18 19  2  0  0  0  0
 18 20  1  0  0  0  0
 20 21  2  0  0  0  0
 20 22  1  0  0  0  0
 22 23  4  0  0  0  0
 23 24  4  0  0  0  0
 24 25  1  0  0  0  0
 24 26  4  0  0  0  0
 26 27  4  0  0  0  0
 27 28  1  0  0  0  0
 27 29  4  0  0  0  0
  8  3  4  0  0  0  0
 21  9  1  0  0  0  0
 29 22  4  0  0  0  0
 17 12  4  0  0  0  0
  1 30  1  0  0  0  0
  1 31  1  0  0  0  0
  2 32  1  0  0  0  0
  2 33  1  0  0  0  0
  4 34  1  0  0  0  0
  5 35  1  0  0  0  0
  6 36  1  0  0  0  0
  7 37  1  0  0  0  0
 10 38  1  0  0  0  0
 13 39  1  0  0  0  0
 15 40  1  0  0  0  0
 16 41  1  0  0  0  0
 17 42  1  0  0  0  0
 21 43  1  0  0  0  0
 26 44  1  0  0  0  0
 29 45  1  0  0  0  0
M  END
> <Compound>
4

>  <SMILE>
NCC1=CC=CC=C1C1=CN(C2=CN=CC=C2)C(=O)C(=C1)C1=NC(Cl)=CC(Cl)=C1

> <Relation>
=

>  <IC50 (??M)>
4.0

> <Bond Type>
Non-covalent

> <References>
https://doi.org/10.1021/acscentsci.1c00039

> <Year>
2020

> <StandardizerResult>
Remove Explicit Hydrogens (ID: RemoveExplicitH)
Dearomatize (ID: Dearomatize)
Clear Stereo (ID: ClearStereo)
Wedge Clean (ID: WedgeClean)
Mesomerize (ID: Mesomerize)
Tautomerize (ID: Tautomerize)
Aromatize (ID: Aromatize)
Add Explicit Hydrogens (ID: AddExplicitH)
Neutralize (ID: Neutralize)
Clean 2D (ID: Clean2D)

> <Molecule (InChiKey)>
AUNMTKIOPIUJNW-UHFFFAOYSA-N

> <Outcome>
Active

> <IC50 (uM)>
4.0

> <SMILES>
NCC1=CC=CC=C1C1=CN(C2=CN=CC=C2)C(=O)C(=C1)C1=NC(Cl)=CC(Cl)=C1

$$$$

  Mrv2016 04192109512D          

 60 62  0  0  0  0            999 V2000
   -2.9706    0.8480    0.0000 C   0  0  0  0  0  0  0  0  0  0  0  0
   -2.1456    0.8480    0.0000 C   0  0  0  0  0  0  0  0  0  0  0  0
   -1.7331    1.5625    0.0000 C   0  0  0  0  0  0  0  0  0  0  0  0
   -1.7331    0.1336    0.0000 N   0  0  0  0  0  0  0  0  0  0  0  0
   -0.9081    0.1336    0.0000 C   0  0  0  0  0  0  0  0  0  0  0  0
   -0.4956    0.8480    0.0000 O   0  0  0  0  0  0  0  0  0  0  0  0
   -0.4956   -0.5809    0.0000 C   0  0  0  0  0  0  0  0  0  0  0  0
    0.3294   -0.5809    0.0000 N   0  0  0  0  0  0  0  0  0  0  0  0
    0.7419    0.1336    0.0000 C   0  0  0  0  0  0  0  0  0  0  0  0
    0.3294    0.8480    0.0000 O   0  0  0  0  0  0  0  0  0  0  0  0
    1.5669    0.1336    0.0000 C   0  0  0  0  0  0  0  0  0  0  0  0
    2.0518    0.8010    0.0000 C   0  0  0  0  0  0  0  0  0  0  0  0
    2.8364    0.5461    0.0000 C   0  0  0  0  0  0  0  0  0  0  0  0
    2.8364   -0.2789    0.0000 C   0  0  0  0  0  0  0  0  0  0  0  0
    2.0518   -0.5339    0.0000 O   0  0  0  0  0  0  0  0  0  0  0  0
    0.7419   -1.2954    0.0000 C   0  0  0  0  0  0  0  0  0  0  0  0
    1.5669   -1.2954    0.0000 C   0  0  0  0  0  0  0  0  0  0  0  0
    1.9794   -2.0099    0.0000 C   0  0  0  0  0  0  0  0  0  0  0  0
    1.5669   -2.7243    0.0000 C   0  0  0  0  0  0  0  0  0  0  0  0
    0.7419   -2.7243    0.0000 C   0  0  0  0  0  0  0  0  0  0  0  0
    0.3294   -2.0099    0.0000 C   0  0  0  0  0  0  0  0  0  0  0  0
    1.9794   -3.4388    0.0000 C   0  0  0  0  0  0  0  0  0  0  0  0
    2.3919   -4.1533    0.0000 C   0  0  0  0  0  0  0  0  0  0  0  0
    1.2649   -3.8513    0.0000 C   0  0  0  0  0  0  0  0  0  0  0  0
    2.6939   -3.0263    0.0000 C   0  0  0  0  0  0  0  0  0  0  0  0
   -0.9081   -1.2954    0.0000 C   0  0  0  0  0  0  0  0  0  0  0  0
   -0.4956   -2.0099    0.0000 C   0  0  0  0  0  0  0  0  0  0  0  0
   -0.9081   -2.7243    0.0000 N   0  0  0  0  0  0  0  0  0  0  0  0
   -1.7331   -2.7243    0.0000 C   0  0  0  0  0  0  0  0  0  0  0  0
   -2.1456   -2.0099    0.0000 C   0  0  0  0  0  0  0  0  0  0  0  0
   -1.7331   -1.2954    0.0000 C   0  0  0  0  0  0  0  0  0  0  0  0
   -2.9706    1.6730    0.0000 H   0  0  0  0  0  0  0  0  0  0  0  0
   -3.7956    0.8480    0.0000 H   0  0  0  0  0  0  0  0  0  0  0  0
   -2.9706    0.0230    0.0000 H   0  0  0  0  0  0  0  0  0  0  0  0
   -2.5581    1.5625    0.0000 H   0  0  0  0  0  0  0  0  0  0  0  0
   -1.1498    0.9791    0.0000 H   0  0  0  0  0  0  0  0  0  0  0  0
   -1.0186    1.9750    0.0000 H   0  0  0  0  0  0  0  0  0  0  0  0
   -1.9466    2.3594    0.0000 H   0  0  0  0  0  0  0  0  0  0  0  0
   -2.1456   -0.5809    0.0000 H   0  0  0  0  0  0  0  0  0  0  0  0
   -0.0831    0.1336    0.0000 H   0  0  0  0  0  0  0  0  0  0  0  0
    1.7969    1.5856    0.0000 H   0  0  0  0  0  0  0  0  0  0  0  0
    3.5039    1.0310    0.0000 H   0  0  0  0  0  0  0  0  0  0  0  0
    3.5039   -0.7639    0.0000 H   0  0  0  0  0  0  0  0  0  0  0  0
    1.1700   -0.5721    0.0000 H   0  0  0  0  0  0  0  0  0  0  0  0
    2.8044   -2.0099    0.0000 H   0  0  0  0  0  0  0  0  0  0  0  0
    0.3294   -3.4388    0.0000 H   0  0  0  0  0  0  0  0  0  0  0  0
   -0.0831   -1.2954    0.0000 H   0  0  0  0  0  0  0  0  0  0  0  0
    1.6774   -4.5658    0.0000 H   0  0  0  0  0  0  0  0  0  0  0  0
    2.8044   -4.8677    0.0000 H   0  0  0  0  0  0  0  0  0  0  0  0
    3.1064   -3.7408    0.0000 H   0  0  0  0  0  0  0  0  0  0  0  0
    1.1572   -3.0334    0.0000 H   0  0  0  0  0  0  0  0  0  0  0  0
    0.4680   -3.6378    0.0000 H   0  0  0  0  0  0  0  0  0  0  0  0
    0.7627   -4.5058    0.0000 H   0  0  0  0  0  0  0  0  0  0  0  0
    3.5118   -2.9186    0.0000 H   0  0  0  0  0  0  0  0  0  0  0  0
    2.9074   -2.2294    0.0000 H   0  0  0  0  0  0  0  0  0  0  0  0
    2.0393   -2.5241    0.0000 H   0  0  0  0  0  0  0  0  0  0  0  0
   -0.0831   -2.7243    0.0000 H   0  0  0  0  0  0  0  0  0  0  0  0
   -2.1456   -3.4388    0.0000 H   0  0  0  0  0  0  0  0  0  0  0  0
   -2.9706   -2.0099    0.0000 H   0  0  0  0  0  0  0  0  0  0  0  0
   -1.3206   -0.5809    0.0000 H   0  0  0  0  0  0  0  0  0  0  0  0
  1  2  1  0  0  0  0
  2  3  1  0  0  0  0
  2  4  1  0  0  0  0
  4  5  1  0  0  0  0
  5  6  2  0  0  0  0
  5  7  1  0  0  0  0
  7  8  1  0  0  0  0
  8  9  1  0  0  0  0
  9 10  2  0  0  0  0
  9 11  1  0  0  0  0
 11 12  4  0  0  0  0
 12 13  4  0  0  0  0
 13 14  4  0  0  0  0
 14 15  4  0  0  0  0
  8 16  1  0  0  0  0
 16 17  4  0  0  0  0
 17 18  4  0  0  0  0
 18 19  4  0  0  0  0
 19 20  4  0  0  0  0
 20 21  4  0  0  0  0
 19 22  1  0  0  0  0
 22 23  1  0  0  0  0
 22 24  1  0  0  0  0
 22 25  1  0  0  0  0
  7 26  1  0  0  0  0
 26 27  4  0  0  0  0
 27 28  4  0  0  0  0
 28 29  4  0  0  0  0
 29 30  4  0  0  0  0
 30 31  4  0  0  0  0
 15 11  4  0  0  0  0
 21 16  4  0  0  0  0
 31 26  4  0  0  0  0
  1 32  1  0  0  0  0
  1 33  1  0  0  0  0
  1 34  1  0  0  0  0
  2 35  1  0  0  0  0
  3 36  1  0  0  0  0
  3 37  1  0  0  0  0
  3 38  1  0  0  0  0
  4 39  1  0  0  0  0
  7 40  1  0  0  0  0
 12 41  1  0  0  0  0
 13 42  1  0  0  0  0
 14 43  1  0  0  0  0
 17 44  1  0  0  0  0
 18 45  1  0  0  0  0
 20 46  1  0  0  0  0
 21 47  1  0  0  0  0
 23 48  1  0  0  0  0
 23 49  1  0  0  0  0
 23 50  1  0  0  0  0
 24 51  1  0  0  0  0
 24 52  1  0  0  0  0
 24 53  1  0  0  0  0
 25 54  1  0  0  0  0
 25 55  1  0  0  0  0
 25 56  1  0  0  0  0
 27 57  1  0  0  0  0
 29 58  1  0  0  0  0
 30 59  1  0  0  0  0
 31 60  1  0  0  0  0
M  END
> <Compound>
2a

>  <SMILE>
CC(C)NC(=O)C(N(C(=O)C1=CC=CO1)C1=CC=C(C=C1)C(C)(C)C)C1=CN=CC=C1

> <Relation>
=

>  <IC50 (??M)>
5.37

> <Bond Type>
Non-covalent

> <References>
10.1101/2020.12.19.423537

> <Year>
2020

> <StandardizerResult>
Remove Explicit Hydrogens (ID: RemoveExplicitH)
Dearomatize (ID: Dearomatize)
Clear Stereo (ID: ClearStereo)
Wedge Clean (ID: WedgeClean)
Mesomerize (ID: Mesomerize)
Tautomerize (ID: Tautomerize)
Aromatize (ID: Aromatize)
Add Explicit Hydrogens (ID: AddExplicitH)
Neutralize (ID: Neutralize)
Clean 2D (ID: Clean2D)

> <Molecule (InChiKey)>
BFMIBWJNRQASNC-UHFFFAOYSA-N

> <Outcome>
Active

> <IC50 (uM)>
5.37

> <SMILES>
CC(C)NC(=O)C(N(C(=O)C1=CC=CO1)C1=CC=C(C=C1)C(C)(C)C)C1=CN=CC=C1

$$$$

  Mrv2016 04192109512D          

 51 54  0  0  0  0            999 V2000
    3.2143    5.6423    0.0000 F   0  0  0  0  0  0  0  0  0  0  0  0
    2.4998    5.2298    0.0000 C   0  0  0  0  0  0  0  0  0  0  0  0
    2.0873    5.9443    0.0000 F   0  0  0  0  0  0  0  0  0  0  0  0
    2.9123    4.5153    0.0000 F   0  0  0  0  0  0  0  0  0  0  0  0
    1.7854    4.8173    0.0000 C   0  0  0  0  0  0  0  0  0  0  0  0
    1.7854    3.9923    0.0000 C   0  0  0  0  0  0  0  0  0  0  0  0
    1.0709    3.5798    0.0000 O   0  0  0  0  0  0  0  0  0  0  0  0
    1.0709    2.7548    0.0000 C   0  0  0  0  0  0  0  0  0  0  0  0
    1.7854    2.3423    0.0000 C   0  0  0  0  0  0  0  0  0  0  0  0
    1.7854    1.5173    0.0000 C   0  0  0  0  0  0  0  0  0  0  0  0
    2.4998    1.1048    0.0000 Cl  0  0  0  0  0  0  0  0  0  0  0  0
    1.0709    1.1048    0.0000 C   0  0  0  0  0  0  0  0  0  0  0  0
    0.3564    1.5173    0.0000 C   0  0  0  0  0  0  0  0  0  0  0  0
    0.3564    2.3423    0.0000 C   0  0  0  0  0  0  0  0  0  0  0  0
   -0.3580    1.1048    0.0000 C   0  0  0  0  0  0  0  0  0  0  0  0
   -0.3580    0.2798    0.0000 C   0  0  0  0  0  0  0  0  0  0  0  0
   -1.0725   -0.1327    0.0000 C   0  0  0  0  0  0  0  0  0  0  0  0
   -1.7870    0.2798    0.0000 C   0  0  0  0  0  0  0  0  0  0  0  0
   -1.7870    1.1048    0.0000 N   0  0  0  0  0  0  0  0  0  0  0  0
   -1.0725    1.5173    0.0000 C   0  0  0  0  0  0  0  0  0  0  0  0
   -1.0725    2.3423    0.0000 O   0  0  0  0  0  0  0  0  0  0  0  0
   -2.5015    1.5173    0.0000 C   0  0  0  0  0  0  0  0  0  0  0  0
   -3.2159    1.1048    0.0000 C   0  0  0  0  0  0  0  0  0  0  0  0
   -3.9304    1.5173    0.0000 N   0  0  0  0  0  0  0  0  0  0  0  0
   -3.9304    2.3423    0.0000 C   0  0  0  0  0  0  0  0  0  0  0  0
   -3.2159    2.7548    0.0000 C   0  0  0  0  0  0  0  0  0  0  0  0
   -2.5015    2.3423    0.0000 C   0  0  0  0  0  0  0  0  0  0  0  0
   -1.0725   -0.9577    0.0000 C   0  0  0  0  0  0  0  0  0  0  0  0
   -0.3580   -1.3702    0.0000 C   0  0  0  0  0  0  0  0  0  0  0  0
   -0.3580   -2.1952    0.0000 N   0  0  0  0  0  0  0  0  0  0  0  0
   -1.0725   -2.6077    0.0000 C   0  0  0  0  0  0  0  0  0  0  0  0
   -1.0725   -3.4327    0.0000 O   0  0  0  0  0  0  0  0  0  0  0  0
   -1.7870   -2.1952    0.0000 N   0  0  0  0  0  0  0  0  0  0  0  0
   -1.7870   -1.3702    0.0000 C   0  0  0  0  0  0  0  0  0  0  0  0
   -2.5015   -0.9577    0.0000 O   0  0  0  0  0  0  0  0  0  0  0  0
    1.3320    5.5066    0.0000 H   0  0  0  0  0  0  0  0  0  0  0  0
    0.9618    4.8653    0.0000 H   0  0  0  0  0  0  0  0  0  0  0  0
    2.2387    3.3030    0.0000 H   0  0  0  0  0  0  0  0  0  0  0  0
    2.6090    3.9443    0.0000 H   0  0  0  0  0  0  0  0  0  0  0  0
    2.4998    2.7548    0.0000 H   0  0  0  0  0  0  0  0  0  0  0  0
    1.0709    0.2798    0.0000 H   0  0  0  0  0  0  0  0  0  0  0  0
   -0.3580    2.7548    0.0000 H   0  0  0  0  0  0  0  0  0  0  0  0
    0.3564   -0.1327    0.0000 H   0  0  0  0  0  0  0  0  0  0  0  0
   -2.5015   -0.1327    0.0000 H   0  0  0  0  0  0  0  0  0  0  0  0
   -3.2159    0.2798    0.0000 H   0  0  0  0  0  0  0  0  0  0  0  0
   -4.6449    2.7548    0.0000 H   0  0  0  0  0  0  0  0  0  0  0  0
   -3.2159    3.5798    0.0000 H   0  0  0  0  0  0  0  0  0  0  0  0
   -1.7870    2.7548    0.0000 H   0  0  0  0  0  0  0  0  0  0  0  0
    0.3564   -0.9577    0.0000 H   0  0  0  0  0  0  0  0  0  0  0  0
    0.3564   -2.6077    0.0000 H   0  0  0  0  0  0  0  0  0  0  0  0
   -2.5015   -2.6077    0.0000 H   0  0  0  0  0  0  0  0  0  0  0  0
  1  2  1  0  0  0  0
  2  3  1  0  0  0  0
  2  4  1  0  0  0  0
  2  5  1  0  0  0  0
  5  6  1  0  0  0  0
  6  7  1  0  0  0  0
  7  8  1  0  0  0  0
  8  9  4  0  0  0  0
  9 10  4  0  0  0  0
 10 11  1  0  0  0  0
 10 12  4  0  0  0  0
 12 13  4  0  0  0  0
 13 14  4  0  0  0  0
 13 15  1  0  0  0  0
 15 16  2  0  0  0  0
 16 17  1  0  0  0  0
 17 18  2  0  0  0  0
 18 19  1  0  0  0  0
 19 20  1  0  0  0  0
 20 21  2  0  0  0  0
 19 22  1  0  0  0  0
 22 23  4  0  0  0  0
 23 24  4  0  0  0  0
 24 25  4  0  0  0  0
 25 26  4  0  0  0  0
 26 27  4  0  0  0  0
 17 28  1  0  0  0  0
 28 29  2  0  0  0  0
 29 30  1  0  0  0  0
 30 31  1  0  0  0  0
 31 32  2  0  0  0  0
 31 33  1  0  0  0  0
 33 34  1  0  0  0  0
 34 35  2  0  0  0  0
 14  8  4  0  0  0  0
 20 15  1  0  0  0  0
 27 22  4  0  0  0  0
 34 28  1  0  0  0  0
  5 36  1  0  0  0  0
  5 37  1  0  0  0  0
  6 38  1  0  0  0  0
  6 39  1  0  0  0  0
  9 40  1  0  0  0  0
 12 41  1  0  0  0  0
 14 42  1  0  0  0  0
 16 43  1  0  0  0  0
 18 44  1  0  0  0  0
 23 45  1  0  0  0  0
 25 46  1  0  0  0  0
 26 47  1  0  0  0  0
 27 48  1  0  0  0  0
 29 49  1  0  0  0  0
 30 50  1  0  0  0  0
 33 51  1  0  0  0  0
M  END
> <Compound>
25

>  <SMILE>
FC(F)(F)CCOC1=CC(Cl)=CC(=C1)C1=CC(=CN(C1=O)C1=CN=CC=C1)C1=CNC(=O)NC1=O

> <Relation>
=

>  <IC50 (??M)>
0.025

> <Bond Type>
Non-covalent

> <References>
https://doi.org/10.1021/acscentsci.1c00039

> <Year>
2020

> <StandardizerResult>
Remove Explicit Hydrogens (ID: RemoveExplicitH)
Dearomatize (ID: Dearomatize)
Clear Stereo (ID: ClearStereo)
Wedge Clean (ID: WedgeClean)
Mesomerize (ID: Mesomerize)
Tautomerize (ID: Tautomerize)
Aromatize (ID: Aromatize)
Add Explicit Hydrogens (ID: AddExplicitH)
Neutralize (ID: Neutralize)
Clean 2D (ID: Clean2D)

> <Molecule (InChiKey)>
BHQBUUBHCKLKLD-UHFFFAOYSA-N

> <Outcome>
Active

> <IC50 (uM)>
0.025

> <SMILES>
FC(F)(F)CCOC1=CC(Cl)=CC(=C1)C1=CC(=CN(C1=O)C1=CN=CC=C1)C1=CNC(=O)NC1=O

$$$$

  Mrv2016 04192109512D          

 67 70  0  0  0  0            999 V2000
   -3.2705   -2.6270    0.0000 C   0  0  0  0  0  0  0  0  0  0  0  0
   -2.4455   -2.6270    0.0000 C   0  0  0  0  0  0  0  0  0  0  0  0
   -2.0330   -1.9125    0.0000 N   0  0  0  0  0  0  0  0  0  0  0  0
   -1.2080   -1.9125    0.0000 C   0  0  0  0  0  0  0  0  0  0  0  0
   -0.7955   -2.6270    0.0000 O   0  0  0  0  0  0  0  0  0  0  0  0
   -0.7955   -1.1980    0.0000 C   0  0  0  0  0  0  0  0  0  0  0  0
    0.0295   -1.1980    0.0000 N   0  0  0  0  0  0  0  0  0  0  0  0
    0.4420   -1.9125    0.0000 C   0  0  0  0  0  0  0  0  0  0  0  0
    0.0295   -2.6270    0.0000 O   0  0  0  0  0  0  0  0  0  0  0  0
    1.2670   -1.9125    0.0000 C   0  0  0  0  0  0  0  0  0  0  0  0
    1.7519   -2.5800    0.0000 C   0  0  0  0  0  0  0  0  0  0  0  0
    2.5365   -2.3250    0.0000 C   0  0  0  0  0  0  0  0  0  0  0  0
    2.5365   -1.5000    0.0000 C   0  0  0  0  0  0  0  0  0  0  0  0
    1.7519   -1.2451    0.0000 O   0  0  0  0  0  0  0  0  0  0  0  0
    0.4420   -0.4836    0.0000 C   0  0  0  0  0  0  0  0  0  0  0  0
    0.0295    0.2309    0.0000 C   0  0  0  0  0  0  0  0  0  0  0  0
    0.4420    0.9454    0.0000 C   0  0  0  0  0  0  0  0  0  0  0  0
    1.2670    0.9454    0.0000 C   0  0  0  0  0  0  0  0  0  0  0  0
    1.6795    0.2309    0.0000 C   0  0  0  0  0  0  0  0  0  0  0  0
    1.2670   -0.4836    0.0000 C   0  0  0  0  0  0  0  0  0  0  0  0
    1.6795    1.6598    0.0000 C   0  0  0  0  0  0  0  0  0  0  0  0
    2.0920    2.3743    0.0000 C   0  0  0  0  0  0  0  0  0  0  0  0
    0.9650    2.0723    0.0000 C   0  0  0  0  0  0  0  0  0  0  0  0
    2.3939    1.2473    0.0000 C   0  0  0  0  0  0  0  0  0  0  0  0
   -1.2080   -0.4836    0.0000 C   0  0  0  0  0  0  0  0  0  0  0  0
   -2.0330   -0.4836    0.0000 C   0  0  0  0  0  0  0  0  0  0  0  0
   -2.4455    0.2309    0.0000 C   0  0  0  0  0  0  0  0  0  0  0  0
   -2.0330    0.9454    0.0000 C   0  0  0  0  0  0  0  0  0  0  0  0
   -1.2080    0.9454    0.0000 N   0  0  0  0  0  0  0  0  0  0  0  0
   -0.7955    0.2309    0.0000 C   0  0  0  0  0  0  0  0  0  0  0  0
   -2.0330   -3.3415    0.0000 C   0  0  0  0  0  0  0  0  0  0  0  0
   -1.2080   -3.3415    0.0000 C   0  0  0  0  0  0  0  0  0  0  0  0
   -0.7955   -4.0559    0.0000 C   0  0  0  0  0  0  0  0  0  0  0  0
   -1.2080   -4.7704    0.0000 C   0  0  0  0  0  0  0  0  0  0  0  0
   -2.0330   -4.7704    0.0000 C   0  0  0  0  0  0  0  0  0  0  0  0
   -2.4455   -4.0559    0.0000 C   0  0  0  0  0  0  0  0  0  0  0  0
   -3.2705   -1.8020    0.0000 H   0  0  0  0  0  0  0  0  0  0  0  0
   -4.0955   -2.6270    0.0000 H   0  0  0  0  0  0  0  0  0  0  0  0
   -3.2705   -3.4520    0.0000 H   0  0  0  0  0  0  0  0  0  0  0  0
   -2.8580   -1.9125    0.0000 H   0  0  0  0  0  0  0  0  0  0  0  0
   -2.0330   -1.0875    0.0000 H   0  0  0  0  0  0  0  0  0  0  0  0
   -0.3830   -1.9125    0.0000 H   0  0  0  0  0  0  0  0  0  0  0  0
    1.4970   -3.3646    0.0000 H   0  0  0  0  0  0  0  0  0  0  0  0
    3.2040   -2.8099    0.0000 H   0  0  0  0  0  0  0  0  0  0  0  0
    3.2040   -1.0151    0.0000 H   0  0  0  0  0  0  0  0  0  0  0  0
   -0.3830   -0.4836    0.0000 H   0  0  0  0  0  0  0  0  0  0  0  0
    0.0295    1.6598    0.0000 H   0  0  0  0  0  0  0  0  0  0  0  0
    2.5045    0.2309    0.0000 H   0  0  0  0  0  0  0  0  0  0  0  0
    0.8701   -1.2068    0.0000 H   0  0  0  0  0  0  0  0  0  0  0  0
    2.8064    1.9618    0.0000 H   0  0  0  0  0  0  0  0  0  0  0  0
    2.5045    3.0888    0.0000 H   0  0  0  0  0  0  0  0  0  0  0  0
    1.3775    2.7868    0.0000 H   0  0  0  0  0  0  0  0  0  0  0  0
    0.4628    2.7269    0.0000 H   0  0  0  0  0  0  0  0  0  0  0  0
    0.1681    1.8588    0.0000 H   0  0  0  0  0  0  0  0  0  0  0  0
    0.8573    1.2544    0.0000 H   0  0  0  0  0  0  0  0  0  0  0  0
    1.7394    0.7451    0.0000 H   0  0  0  0  0  0  0  0  0  0  0  0
    2.6075    0.4505    0.0000 H   0  0  0  0  0  0  0  0  0  0  0  0
    3.2119    1.1397    0.0000 H   0  0  0  0  0  0  0  0  0  0  0  0
   -2.8299   -0.6971    0.0000 H   0  0  0  0  0  0  0  0  0  0  0  0
   -3.2705    0.2309    0.0000 H   0  0  0  0  0  0  0  0  0  0  0  0
   -2.4455    1.6598    0.0000 H   0  0  0  0  0  0  0  0  0  0  0  0
   -1.6205    0.2309    0.0000 H   0  0  0  0  0  0  0  0  0  0  0  0
   -1.6205   -2.6270    0.0000 H   0  0  0  0  0  0  0  0  0  0  0  0
    0.0295   -4.0559    0.0000 H   0  0  0  0  0  0  0  0  0  0  0  0
   -0.7955   -5.4849    0.0000 H   0  0  0  0  0  0  0  0  0  0  0  0
   -2.4455   -5.4849    0.0000 H   0  0  0  0  0  0  0  0  0  0  0  0
   -3.2705   -4.0559    0.0000 H   0  0  0  0  0  0  0  0  0  0  0  0
  2  1  1  0  0  0  0
  2  3  1  0  0  0  0
  3  4  1  0  0  0  0
  4  5  2  0  0  0  0
  4  6  1  0  0  0  0
  6  7  1  0  0  0  0
  7  8  1  0  0  0  0
  8  9  2  0  0  0  0
  8 10  1  0  0  0  0
 10 11  4  0  0  0  0
 11 12  4  0  0  0  0
 12 13  4  0  0  0  0
 13 14  4  0  0  0  0
  7 15  1  0  0  0  0
 15 16  4  0  0  0  0
 16 17  4  0  0  0  0
 17 18  4  0  0  0  0
 18 19  4  0  0  0  0
 19 20  4  0  0  0  0
 18 21  1  0  0  0  0
 21 22  1  0  0  0  0
 21 23  1  0  0  0  0
 21 24  1  0  0  0  0
  6 25  1  0  0  0  0
 25 26  4  0  0  0  0
 26 27  4  0  0  0  0
 27 28  4  0  0  0  0
 28 29  4  0  0  0  0
 29 30  4  0  0  0  0
  2 31  1  0  0  0  0
 31 32  4  0  0  0  0
 32 33  4  0  0  0  0
 33 34  4  0  0  0  0
 34 35  4  0  0  0  0
 35 36  4  0  0  0  0
 14 10  4  0  0  0  0
 20 15  4  0  0  0  0
 30 25  4  0  0  0  0
 36 31  4  0  0  0  0
  1 37  1  0  0  0  0
  1 38  1  0  0  0  0
  1 39  1  0  0  0  0
  2 40  1  0  0  0  0
  3 41  1  0  0  0  0
  6 42  1  0  0  0  0
 11 43  1  0  0  0  0
 12 44  1  0  0  0  0
 13 45  1  0  0  0  0
 16 46  1  0  0  0  0
 17 47  1  0  0  0  0
 19 48  1  0  0  0  0
 20 49  1  0  0  0  0
 22 50  1  0  0  0  0
 22 51  1  0  0  0  0
 22 52  1  0  0  0  0
 23 53  1  0  0  0  0
 23 54  1  0  0  0  0
 23 55  1  0  0  0  0
 24 56  1  0  0  0  0
 24 57  1  0  0  0  0
 24 58  1  0  0  0  0
 26 59  1  0  0  0  0
 27 60  1  0  0  0  0
 28 61  1  0  0  0  0
 30 62  1  0  0  0  0
 32 63  1  0  0  0  0
 33 64  1  0  0  0  0
 34 65  1  0  0  0  0
 35 66  1  0  0  0  0
 36 67  1  0  0  0  0
M  END
> <Compound>
13a

>  <SMILE>
C[C@H](NC(=O)C(N(C(=O)C1=CC=CO1)C1=CC=C(C=C1)C(C)(C)C)C1=CC=CN=C1)C1=CC=CC=C1

> <Relation>
=

>  <IC50 (??M)>
5.7

> <Bond Type>
Non-covalent

> <References>
10.1101/2020.12.19.423537

> <Year>
2020

> <StandardizerResult>
Remove Explicit Hydrogens (ID: RemoveExplicitH)
Dearomatize (ID: Dearomatize)
Clear Stereo (ID: ClearStereo)
Wedge Clean (ID: WedgeClean)
Mesomerize (ID: Mesomerize)
Tautomerize (ID: Tautomerize)
Aromatize (ID: Aromatize)
Add Explicit Hydrogens (ID: AddExplicitH)
Neutralize (ID: Neutralize)
Clean 2D (ID: Clean2D)

> <Molecule (InChiKey)>
BROLJTKQRJMMHO-UHFFFAOYSA-N

> <Outcome>
Active

> <IC50 (uM)>
5.7

> <SMILES>
C[C@H](NC(=O)C(N(C(=O)C1=CC=CO1)C1=CC=C(C=C1)C(C)(C)C)C1=CC=CN=C1)C1=CC=CC=C1

$$$$

  Mrv2016 04192109512D          

 55 59  0  0  0  0            999 V2000
    3.2441    1.7733    0.0000 F   0  0  0  0  0  0  0  0  0  0  0  0
    3.2441    0.9483    0.0000 C   0  0  0  0  0  0  0  0  0  0  0  0
    3.9586    0.5358    0.0000 C   0  0  0  0  0  0  0  0  0  0  0  0
    3.9586   -0.2892    0.0000 C   0  0  0  0  0  0  0  0  0  0  0  0
    3.2441   -0.7017    0.0000 C   0  0  0  0  0  0  0  0  0  0  0  0
    2.5296   -0.2892    0.0000 C   0  0  0  0  0  0  0  0  0  0  0  0
    1.8152   -0.7017    0.0000 F   0  0  0  0  0  0  0  0  0  0  0  0
    2.5296    0.5358    0.0000 C   0  0  0  0  0  0  0  0  0  0  0  0
    1.8152    0.9483    0.0000 C   0  0  0  0  0  0  0  0  0  0  0  0
    1.8152    1.7733    0.0000 O   0  0  0  0  0  0  0  0  0  0  0  0
    1.1007    2.1858    0.0000 C   0  0  0  0  0  0  0  0  0  0  0  0
    0.3862    1.7733    0.0000 C   0  0  0  0  0  0  0  0  0  0  0  0
   -0.3283    2.1858    0.0000 C   0  0  0  0  0  0  0  0  0  0  0  0
   -1.0427    1.7733    0.0000 Cl  0  0  0  0  0  0  0  0  0  0  0  0
   -0.3283    3.0108    0.0000 C   0  0  0  0  0  0  0  0  0  0  0  0
    0.3862    3.4233    0.0000 C   0  0  0  0  0  0  0  0  0  0  0  0
    1.1007    3.0108    0.0000 C   0  0  0  0  0  0  0  0  0  0  0  0
    0.3862    4.2483    0.0000 C   0  0  0  0  0  0  0  0  0  0  0  0
   -0.3283    4.6608    0.0000 C   0  0  0  0  0  0  0  0  0  0  0  0
   -0.3283    5.4858    0.0000 C   0  0  0  0  0  0  0  0  0  0  0  0
    0.3862    5.8983    0.0000 C   0  0  0  0  0  0  0  0  0  0  0  0
    1.1007    5.4858    0.0000 N   0  0  0  0  0  0  0  0  0  0  0  0
    1.1007    4.6608    0.0000 C   0  0  0  0  0  0  0  0  0  0  0  0
    1.8152    4.2483    0.0000 O   0  0  0  0  0  0  0  0  0  0  0  0
    1.8152    5.8983    0.0000 C   0  0  0  0  0  0  0  0  0  0  0  0
    1.8152    6.7233    0.0000 C   0  0  0  0  0  0  0  0  0  0  0  0
    2.5296    7.1358    0.0000 N   0  0  0  0  0  0  0  0  0  0  0  0
    3.2441    6.7233    0.0000 C   0  0  0  0  0  0  0  0  0  0  0  0
    3.2441    5.8983    0.0000 C   0  0  0  0  0  0  0  0  0  0  0  0
    2.5296    5.4858    0.0000 C   0  0  0  0  0  0  0  0  0  0  0  0
   -1.0427    5.8983    0.0000 C   0  0  0  0  0  0  0  0  0  0  0  0
   -1.7572    5.4858    0.0000 C   0  0  0  0  0  0  0  0  0  0  0  0
   -2.4717    5.8983    0.0000 N   0  0  0  0  0  0  0  0  0  0  0  0
   -2.4717    6.7233    0.0000 C   0  0  0  0  0  0  0  0  0  0  0  0
   -3.1861    7.1358    0.0000 O   0  0  0  0  0  0  0  0  0  0  0  0
   -1.7572    7.1358    0.0000 N   0  0  0  0  0  0  0  0  0  0  0  0
   -1.0427    6.7233    0.0000 C   0  0  0  0  0  0  0  0  0  0  0  0
   -0.3283    7.1358    0.0000 O   0  0  0  0  0  0  0  0  0  0  0  0
    4.6730    0.9483    0.0000 H   0  0  0  0  0  0  0  0  0  0  0  0
    4.6730   -0.7017    0.0000 H   0  0  0  0  0  0  0  0  0  0  0  0
    3.2441   -1.5267    0.0000 H   0  0  0  0  0  0  0  0  0  0  0  0
    0.9916    0.9003    0.0000 H   0  0  0  0  0  0  0  0  0  0  0  0
    1.3618    0.2590    0.0000 H   0  0  0  0  0  0  0  0  0  0  0  0
    0.3862    0.9483    0.0000 H   0  0  0  0  0  0  0  0  0  0  0  0
   -1.0427    3.4233    0.0000 H   0  0  0  0  0  0  0  0  0  0  0  0
    1.8152    3.4233    0.0000 H   0  0  0  0  0  0  0  0  0  0  0  0
   -1.0427    4.2483    0.0000 H   0  0  0  0  0  0  0  0  0  0  0  0
    0.3862    6.7233    0.0000 H   0  0  0  0  0  0  0  0  0  0  0  0
    1.1007    7.1358    0.0000 H   0  0  0  0  0  0  0  0  0  0  0  0
    3.9586    7.1358    0.0000 H   0  0  0  0  0  0  0  0  0  0  0  0
    3.9586    5.4858    0.0000 H   0  0  0  0  0  0  0  0  0  0  0  0
    2.5296    4.6608    0.0000 H   0  0  0  0  0  0  0  0  0  0  0  0
   -1.7572    4.6608    0.0000 H   0  0  0  0  0  0  0  0  0  0  0  0
   -3.1861    5.4858    0.0000 H   0  0  0  0  0  0  0  0  0  0  0  0
   -1.7572    7.9608    0.0000 H   0  0  0  0  0  0  0  0  0  0  0  0
  1  2  1  0  0  0  0
  2  3  4  0  0  0  0
  3  4  4  0  0  0  0
  4  5  4  0  0  0  0
  5  6  4  0  0  0  0
  6  7  1  0  0  0  0
  6  8  4  0  0  0  0
  8  9  1  0  0  0  0
  9 10  1  0  0  0  0
 10 11  1  0  0  0  0
 11 12  4  0  0  0  0
 12 13  4  0  0  0  0
 13 14  1  0  0  0  0
 13 15  4  0  0  0  0
 15 16  4  0  0  0  0
 16 17  4  0  0  0  0
 16 18  1  0  0  0  0
 18 19  2  0  0  0  0
 19 20  1  0  0  0  0
 20 21  2  0  0  0  0
 21 22  1  0  0  0  0
 22 23  1  0  0  0  0
 23 24  2  0  0  0  0
 22 25  1  0  0  0  0
 25 26  4  0  0  0  0
 26 27  4  0  0  0  0
 27 28  4  0  0  0  0
 28 29  4  0  0  0  0
 29 30  4  0  0  0  0
 20 31  1  0  0  0  0
 31 32  2  0  0  0  0
 32 33  1  0  0  0  0
 33 34  1  0  0  0  0
 34 35  2  0  0  0  0
 34 36  1  0  0  0  0
 36 37  1  0  0  0  0
 37 38  2  0  0  0  0
  8  2  4  0  0  0  0
 17 11  4  0  0  0  0
 23 18  1  0  0  0  0
 30 25  4  0  0  0  0
 37 31  1  0  0  0  0
  3 39  1  0  0  0  0
  4 40  1  0  0  0  0
  5 41  1  0  0  0  0
  9 42  1  0  0  0  0
  9 43  1  0  0  0  0
 12 44  1  0  0  0  0
 15 45  1  0  0  0  0
 17 46  1  0  0  0  0
 19 47  1  0  0  0  0
 21 48  1  0  0  0  0
 26 49  1  0  0  0  0
 28 50  1  0  0  0  0
 29 51  1  0  0  0  0
 30 52  1  0  0  0  0
 32 53  1  0  0  0  0
 33 54  1  0  0  0  0
 36 55  1  0  0  0  0
M  END
> <Compound>
20

>  <SMILE>
FC1=CC=CC(F)=C1COC1=CC(Cl)=CC(=C1)C1=CC(=CN(C1=O)C1=CN=CC=C1)C1=CNC(=O)NC1=O

> <Relation>
=

>  <IC50 (??M)>
0.036

> <Bond Type>
Non-covalent

> <References>
https://doi.org/10.1021/acscentsci.1c00039

> <Year>
2020

> <StandardizerResult>
Remove Explicit Hydrogens (ID: RemoveExplicitH)
Dearomatize (ID: Dearomatize)
Clear Stereo (ID: ClearStereo)
Wedge Clean (ID: WedgeClean)
Mesomerize (ID: Mesomerize)
Tautomerize (ID: Tautomerize)
Aromatize (ID: Aromatize)
Add Explicit Hydrogens (ID: AddExplicitH)
Neutralize (ID: Neutralize)
Clean 2D (ID: Clean2D)

> <Molecule (InChiKey)>
BUTFYHOATLSTQT-UHFFFAOYSA-N

> <Outcome>
Active

> <IC50 (uM)>
0.036

> <SMILES>
FC1=CC=CC(F)=C1COC1=CC(Cl)=CC(=C1)C1=CC(=CN(C1=O)C1=CN=CC=C1)C1=CNC(=O)NC1=O

$$$$

  Mrv2016 04192109512D          

 64 68  0  0  0  0            999 V2000
   -3.2973   -2.7111    0.0000 C   0  0  0  0  0  0  0  0  0  0  0  0
   -2.4723   -2.7111    0.0000 C   0  0  0  0  0  0  0  0  0  0  0  0
   -2.0598   -1.9966    0.0000 N   0  0  0  0  0  0  0  0  0  0  0  0
   -1.2348   -1.9966    0.0000 C   0  0  0  0  0  0  0  0  0  0  0  0
   -0.8223   -2.7111    0.0000 O   0  0  0  0  0  0  0  0  0  0  0  0
   -0.8223   -1.2821    0.0000 C   0  0  0  0  0  0  0  0  0  0  0  0
    0.0027   -1.2821    0.0000 N   0  0  0  0  0  0  0  0  0  0  0  0
    0.4152   -1.9966    0.0000 C   0  0  0  0  0  0  0  0  0  0  0  0
    0.0027   -2.7111    0.0000 O   0  0  0  0  0  0  0  0  0  0  0  0
    1.2402   -1.9966    0.0000 C   0  0  0  0  0  0  0  0  0  0  0  0
    1.7251   -2.6640    0.0000 C   0  0  0  0  0  0  0  0  0  0  0  0
    2.5097   -2.4091    0.0000 C   0  0  0  0  0  0  0  0  0  0  0  0
    2.5097   -1.5841    0.0000 N   0  0  0  0  0  0  0  0  0  0  0  0
    1.7251   -1.3292    0.0000 O   0  0  0  0  0  0  0  0  0  0  0  0
    0.4152   -0.5677    0.0000 C   0  0  0  0  0  0  0  0  0  0  0  0
    0.0027    0.1468    0.0000 C   0  0  0  0  0  0  0  0  0  0  0  0
    0.4152    0.8613    0.0000 C   0  0  0  0  0  0  0  0  0  0  0  0
    1.2402    0.8613    0.0000 C   0  0  0  0  0  0  0  0  0  0  0  0
    1.6527    0.1468    0.0000 C   0  0  0  0  0  0  0  0  0  0  0  0
    1.2402   -0.5677    0.0000 C   0  0  0  0  0  0  0  0  0  0  0  0
    1.6527    1.5758    0.0000 C   0  0  0  0  0  0  0  0  0  0  0  0
    1.2402    2.2902    0.0000 C   0  0  0  0  0  0  0  0  0  0  0  0
    1.6527    3.0047    0.0000 C   0  0  0  0  0  0  0  0  0  0  0  0
    2.4777    3.0047    0.0000 C   0  0  0  0  0  0  0  0  0  0  0  0
    2.8902    2.2902    0.0000 C   0  0  0  0  0  0  0  0  0  0  0  0
    2.4777    1.5758    0.0000 C   0  0  0  0  0  0  0  0  0  0  0  0
   -1.2348   -0.5677    0.0000 C   0  0  0  0  0  0  0  0  0  0  0  0
   -2.0598   -0.5677    0.0000 C   0  0  0  0  0  0  0  0  0  0  0  0
   -2.4723    0.1468    0.0000 C   0  0  0  0  0  0  0  0  0  0  0  0
   -2.0598    0.8613    0.0000 C   0  0  0  0  0  0  0  0  0  0  0  0
   -1.2348    0.8613    0.0000 N   0  0  0  0  0  0  0  0  0  0  0  0
   -0.8223    0.1468    0.0000 C   0  0  0  0  0  0  0  0  0  0  0  0
   -2.0598   -3.4255    0.0000 C   0  0  0  0  0  0  0  0  0  0  0  0
   -1.2348   -3.4255    0.0000 C   0  0  0  0  0  0  0  0  0  0  0  0
   -0.8223   -4.1400    0.0000 C   0  0  0  0  0  0  0  0  0  0  0  0
   -1.2348   -4.8545    0.0000 C   0  0  0  0  0  0  0  0  0  0  0  0
   -2.0598   -4.8545    0.0000 C   0  0  0  0  0  0  0  0  0  0  0  0
   -2.4723   -4.1400    0.0000 C   0  0  0  0  0  0  0  0  0  0  0  0
   -3.2973   -1.8861    0.0000 H   0  0  0  0  0  0  0  0  0  0  0  0
   -4.1223   -2.7111    0.0000 H   0  0  0  0  0  0  0  0  0  0  0  0
   -3.2973   -3.5361    0.0000 H   0  0  0  0  0  0  0  0  0  0  0  0
   -2.8848   -1.9966    0.0000 H   0  0  0  0  0  0  0  0  0  0  0  0
   -2.0598   -1.1716    0.0000 H   0  0  0  0  0  0  0  0  0  0  0  0
   -0.4098   -1.9966    0.0000 H   0  0  0  0  0  0  0  0  0  0  0  0
    1.4701   -3.4487    0.0000 H   0  0  0  0  0  0  0  0  0  0  0  0
    3.1771   -2.8940    0.0000 H   0  0  0  0  0  0  0  0  0  0  0  0
   -0.4098   -0.5677    0.0000 H   0  0  0  0  0  0  0  0  0  0  0  0
    0.0027    1.5758    0.0000 H   0  0  0  0  0  0  0  0  0  0  0  0
    2.4777    0.1468    0.0000 H   0  0  0  0  0  0  0  0  0  0  0  0
    0.8433   -1.2909    0.0000 H   0  0  0  0  0  0  0  0  0  0  0  0
    0.4152    2.2902    0.0000 H   0  0  0  0  0  0  0  0  0  0  0  0
    1.2402    3.7192    0.0000 H   0  0  0  0  0  0  0  0  0  0  0  0
    2.8902    3.7192    0.0000 H   0  0  0  0  0  0  0  0  0  0  0  0
    3.7152    2.2902    0.0000 H   0  0  0  0  0  0  0  0  0  0  0  0
    2.8902    0.8613    0.0000 H   0  0  0  0  0  0  0  0  0  0  0  0
   -2.8567   -0.7812    0.0000 H   0  0  0  0  0  0  0  0  0  0  0  0
   -3.2973    0.1468    0.0000 H   0  0  0  0  0  0  0  0  0  0  0  0
   -2.4723    1.5758    0.0000 H   0  0  0  0  0  0  0  0  0  0  0  0
   -1.6473    0.1468    0.0000 H   0  0  0  0  0  0  0  0  0  0  0  0
   -1.6473   -2.7111    0.0000 H   0  0  0  0  0  0  0  0  0  0  0  0
    0.0027   -4.1400    0.0000 H   0  0  0  0  0  0  0  0  0  0  0  0
   -0.8223   -5.5689    0.0000 H   0  0  0  0  0  0  0  0  0  0  0  0
   -2.4723   -5.5689    0.0000 H   0  0  0  0  0  0  0  0  0  0  0  0
   -3.2973   -4.1400    0.0000 H   0  0  0  0  0  0  0  0  0  0  0  0
  2  1  1  0  0  0  0
  2  3  1  0  0  0  0
  3  4  1  0  0  0  0
  4  5  2  0  0  0  0
  4  6  1  0  0  0  0
  6  7  1  0  0  0  0
  7  8  1  0  0  0  0
  8  9  2  0  0  0  0
  8 10  1  0  0  0  0
 10 11  4  0  0  0  0
 11 12  4  0  0  0  0
 12 13  4  0  0  0  0
 13 14  4  0  0  0  0
  7 15  1  0  0  0  0
 15 16  4  0  0  0  0
 16 17  4  0  0  0  0
 17 18  4  0  0  0  0
 18 19  4  0  0  0  0
 19 20  4  0  0  0  0
 18 21  1  0  0  0  0
 21 22  4  0  0  0  0
 22 23  4  0  0  0  0
 23 24  4  0  0  0  0
 24 25  4  0  0  0  0
 25 26  4  0  0  0  0
  6 27  1  0  0  0  0
 27 28  4  0  0  0  0
 28 29  4  0  0  0  0
 29 30  4  0  0  0  0
 30 31  4  0  0  0  0
 31 32  4  0  0  0  0
  2 33  1  0  0  0  0
 33 34  4  0  0  0  0
 34 35  4  0  0  0  0
 35 36  4  0  0  0  0
 36 37  4  0  0  0  0
 37 38  4  0  0  0  0
 14 10  4  0  0  0  0
 20 15  4  0  0  0  0
 26 21  4  0  0  0  0
 32 27  4  0  0  0  0
 38 33  4  0  0  0  0
  1 39  1  0  0  0  0
  1 40  1  0  0  0  0
  1 41  1  0  0  0  0
  2 42  1  0  0  0  0
  3 43  1  0  0  0  0
  6 44  1  0  0  0  0
 11 45  1  0  0  0  0
 12 46  1  0  0  0  0
 16 47  1  0  0  0  0
 17 48  1  0  0  0  0
 19 49  1  0  0  0  0
 20 50  1  0  0  0  0
 22 51  1  0  0  0  0
 23 52  1  0  0  0  0
 24 53  1  0  0  0  0
 25 54  1  0  0  0  0
 26 55  1  0  0  0  0
 28 56  1  0  0  0  0
 29 57  1  0  0  0  0
 30 58  1  0  0  0  0
 32 59  1  0  0  0  0
 34 60  1  0  0  0  0
 35 61  1  0  0  0  0
 36 62  1  0  0  0  0
 37 63  1  0  0  0  0
 38 64  1  0  0  0  0
M  END
> <Compound>
25a

>  <SMILE>
C[C@H](NC(=O)C(N(C(=O)C1=CC=NO1)C1=CC=C(C=C1)C1=CC=CC=C1)C1=CC=CN=C1)C1=CC=CC=C1

> <Relation>
=

>  <IC50 (??M)>
2.47

> <Bond Type>
Non-covalent

> <References>
10.1101/2020.12.19.423537

> <Year>
2020

> <StandardizerResult>
Remove Explicit Hydrogens (ID: RemoveExplicitH)
Dearomatize (ID: Dearomatize)
Clear Stereo (ID: ClearStereo)
Wedge Clean (ID: WedgeClean)
Mesomerize (ID: Mesomerize)
Tautomerize (ID: Tautomerize)
Aromatize (ID: Aromatize)
Add Explicit Hydrogens (ID: AddExplicitH)
Neutralize (ID: Neutralize)
Clean 2D (ID: Clean2D)

> <Molecule (InChiKey)>
CIRLSXXITHQIMD-UHFFFAOYSA-N

> <Outcome>
Active

> <IC50 (uM)>
2.47

> <SMILES>
C[C@H](NC(=O)C(N(C(=O)C1=CC=NO1)C1=CC=C(C=C1)C1=CC=CC=C1)C1=CC=CN=C1)C1=CC=CC=C1

$$$$

  Mrv2016 04192109512D          

 58 62  0  0  0  0            999 V2000
   -1.3317   -1.1750    0.0000 C   0  0  0  0  0  0  0  0  0  0  0  0
   -1.3317   -2.0000    0.0000 C   0  0  0  0  0  0  0  0  0  0  0  0
   -0.6173   -2.4125    0.0000 C   0  0  0  0  0  0  0  0  0  0  0  0
    0.0972   -2.0000    0.0000 C   0  0  0  0  0  0  0  0  0  0  0  0
    0.8117   -2.4125    0.0000 O   0  0  0  0  0  0  0  0  0  0  0  0
    1.5262   -2.0000    0.0000 C   0  0  0  0  0  0  0  0  0  0  0  0
    1.5262   -1.1750    0.0000 C   0  0  0  0  0  0  0  0  0  0  0  0
    2.2406   -0.7625    0.0000 C   0  0  0  0  0  0  0  0  0  0  0  0
    2.2406    0.0625    0.0000 Cl  0  0  0  0  0  0  0  0  0  0  0  0
    2.9551   -1.1750    0.0000 C   0  0  0  0  0  0  0  0  0  0  0  0
    2.9551   -2.0000    0.0000 C   0  0  0  0  0  0  0  0  0  0  0  0
    2.2406   -2.4125    0.0000 C   0  0  0  0  0  0  0  0  0  0  0  0
    3.6696   -2.4125    0.0000 C   0  0  0  0  0  0  0  0  0  0  0  0
    4.3840   -2.0000    0.0000 C   0  0  0  0  0  0  0  0  0  0  0  0
    5.0985   -2.4125    0.0000 C   0  0  0  0  0  0  0  0  0  0  0  0
    5.0985   -3.2375    0.0000 C   0  0  0  0  0  0  0  0  0  0  0  0
    4.3840   -3.6500    0.0000 N   0  0  0  0  0  0  0  0  0  0  0  0
    3.6696   -3.2375    0.0000 C   0  0  0  0  0  0  0  0  0  0  0  0
    2.9551   -3.6500    0.0000 O   0  0  0  0  0  0  0  0  0  0  0  0
    4.3840   -4.4750    0.0000 C   0  0  0  0  0  0  0  0  0  0  0  0
    5.0985   -4.8875    0.0000 C   0  0  0  0  0  0  0  0  0  0  0  0
    5.0985   -5.7125    0.0000 N   0  0  0  0  0  0  0  0  0  0  0  0
    4.3840   -6.1250    0.0000 C   0  0  0  0  0  0  0  0  0  0  0  0
    3.6696   -5.7125    0.0000 C   0  0  0  0  0  0  0  0  0  0  0  0
    3.6696   -4.8875    0.0000 C   0  0  0  0  0  0  0  0  0  0  0  0
    5.8130   -2.0000    0.0000 C   0  0  0  0  0  0  0  0  0  0  0  0
    5.8130   -1.1750    0.0000 C   0  0  0  0  0  0  0  0  0  0  0  0
    6.5274   -0.7625    0.0000 N   0  0  0  0  0  0  0  0  0  0  0  0
    7.2419   -1.1750    0.0000 C   0  0  0  0  0  0  0  0  0  0  0  0
    7.9564   -0.7625    0.0000 O   0  0  0  0  0  0  0  0  0  0  0  0
    7.2419   -2.0000    0.0000 N   0  0  0  0  0  0  0  0  0  0  0  0
    6.5274   -2.4125    0.0000 C   0  0  0  0  0  0  0  0  0  0  0  0
    6.5274   -3.2375    0.0000 O   0  0  0  0  0  0  0  0  0  0  0  0
   -0.6173   -3.2375    0.0000 C   0  0  0  0  0  0  0  0  0  0  0  0
   -1.3317   -3.6500    0.0000 C   0  0  0  0  0  0  0  0  0  0  0  0
   -2.0462   -3.2375    0.0000 C   0  0  0  0  0  0  0  0  0  0  0  0
   -2.0462   -2.4125    0.0000 C   0  0  0  0  0  0  0  0  0  0  0  0
   -0.5067   -1.1750    0.0000 H   0  0  0  0  0  0  0  0  0  0  0  0
   -1.3317   -0.3500    0.0000 H   0  0  0  0  0  0  0  0  0  0  0  0
   -2.1567   -1.1750    0.0000 H   0  0  0  0  0  0  0  0  0  0  0  0
    0.4675   -1.2627    0.0000 H   0  0  0  0  0  0  0  0  0  0  0  0
   -0.2730   -1.2627    0.0000 H   0  0  0  0  0  0  0  0  0  0  0  0
    0.8117   -0.7625    0.0000 H   0  0  0  0  0  0  0  0  0  0  0  0
    3.6696   -0.7625    0.0000 H   0  0  0  0  0  0  0  0  0  0  0  0
    2.2406   -3.2375    0.0000 H   0  0  0  0  0  0  0  0  0  0  0  0
    4.3840   -1.1750    0.0000 H   0  0  0  0  0  0  0  0  0  0  0  0
    5.8130   -3.6500    0.0000 H   0  0  0  0  0  0  0  0  0  0  0  0
    5.8130   -4.4750    0.0000 H   0  0  0  0  0  0  0  0  0  0  0  0
    4.3840   -6.9500    0.0000 H   0  0  0  0  0  0  0  0  0  0  0  0
    2.9551   -6.1250    0.0000 H   0  0  0  0  0  0  0  0  0  0  0  0
    2.9551   -4.4750    0.0000 H   0  0  0  0  0  0  0  0  0  0  0  0
    5.0985   -0.7625    0.0000 H   0  0  0  0  0  0  0  0  0  0  0  0
    6.5274    0.0625    0.0000 H   0  0  0  0  0  0  0  0  0  0  0  0
    7.9564   -2.4125    0.0000 H   0  0  0  0  0  0  0  0  0  0  0  0
    0.0972   -3.6500    0.0000 H   0  0  0  0  0  0  0  0  0  0  0  0
   -1.3317   -4.4750    0.0000 H   0  0  0  0  0  0  0  0  0  0  0  0
   -2.7607   -3.6500    0.0000 H   0  0  0  0  0  0  0  0  0  0  0  0
   -2.7607   -2.0000    0.0000 H   0  0  0  0  0  0  0  0  0  0  0  0
  1  2  1  0  0  0  0
  2  3  4  0  0  0  0
  3  4  1  0  0  0  0
  4  5  1  0  0  0  0
  5  6  1  0  0  0  0
  6  7  4  0  0  0  0
  7  8  4  0  0  0  0
  8  9  1  0  0  0  0
  8 10  4  0  0  0  0
 10 11  4  0  0  0  0
 11 12  4  0  0  0  0
 11 13  1  0  0  0  0
 13 14  2  0  0  0  0
 14 15  1  0  0  0  0
 15 16  2  0  0  0  0
 16 17  1  0  0  0  0
 17 18  1  0  0  0  0
 18 19  2  0  0  0  0
 17 20  1  0  0  0  0
 20 21  4  0  0  0  0
 21 22  4  0  0  0  0
 22 23  4  0  0  0  0
 23 24  4  0  0  0  0
 24 25  4  0  0  0  0
 15 26  1  0  0  0  0
 26 27  2  0  0  0  0
 27 28  1  0  0  0  0
 28 29  1  0  0  0  0
 29 30  2  0  0  0  0
 29 31  1  0  0  0  0
 31 32  1  0  0  0  0
 32 33  2  0  0  0  0
  3 34  4  0  0  0  0
 34 35  4  0  0  0  0
 35 36  4  0  0  0  0
 36 37  4  0  0  0  0
 37  2  4  0  0  0  0
 12  6  4  0  0  0  0
 18 13  1  0  0  0  0
 25 20  4  0  0  0  0
 32 26  1  0  0  0  0
  1 38  1  0  0  0  0
  1 39  1  0  0  0  0
  1 40  1  0  0  0  0
  4 41  1  0  0  0  0
  4 42  1  0  0  0  0
  7 43  1  0  0  0  0
 10 44  1  0  0  0  0
 12 45  1  0  0  0  0
 14 46  1  0  0  0  0
 16 47  1  0  0  0  0
 21 48  1  0  0  0  0
 23 49  1  0  0  0  0
 24 50  1  0  0  0  0
 25 51  1  0  0  0  0
 27 52  1  0  0  0  0
 28 53  1  0  0  0  0
 31 54  1  0  0  0  0
 34 55  1  0  0  0  0
 35 56  1  0  0  0  0
 36 57  1  0  0  0  0
 37 58  1  0  0  0  0
M  END
> <Compound>
16

>  <SMILE>
CC1=C(COC2=CC(Cl)=CC(=C2)C2=CC(=CN(C2=O)C2=CN=CC=C2)C2=CNC(=O)NC2=O)C=CC=C1

> <Relation>
=

>  <IC50 (??M)>
0.1

> <Bond Type>
Non-covalent

> <References>
https://doi.org/10.1021/acscentsci.1c00039

> <Year>
2020

> <StandardizerResult>
Remove Explicit Hydrogens (ID: RemoveExplicitH)
Dearomatize (ID: Dearomatize)
Clear Stereo (ID: ClearStereo)
Wedge Clean (ID: WedgeClean)
Mesomerize (ID: Mesomerize)
Tautomerize (ID: Tautomerize)
Aromatize (ID: Aromatize)
Add Explicit Hydrogens (ID: AddExplicitH)
Neutralize (ID: Neutralize)
Clean 2D (ID: Clean2D)

> <Molecule (InChiKey)>
CXKRCAINPQDWER-UHFFFAOYSA-N

> <Outcome>
Active

> <IC50 (uM)>
0.1

> <SMILES>
CC1=C(COC2=CC(Cl)=CC(=C2)C2=CC(=CN(C2=O)C2=CN=CC=C2)C2=CNC(=O)NC2=O)C=CC=C1

$$$$

  Mrv2016 04192109512D          

 64 68  0  0  0  0            999 V2000
   -3.3117   -2.6618    0.0000 C   0  0  0  0  0  0  0  0  0  0  0  0
   -2.4867   -2.6618    0.0000 C   0  0  0  0  0  0  0  0  0  0  0  0
   -2.0742   -1.9473    0.0000 N   0  0  0  0  0  0  0  0  0  0  0  0
   -1.2492   -1.9473    0.0000 C   0  0  0  0  0  0  0  0  0  0  0  0
   -0.8367   -2.6618    0.0000 O   0  0  0  0  0  0  0  0  0  0  0  0
   -0.8367   -1.2329    0.0000 C   0  0  0  0  0  0  0  0  0  0  0  0
   -0.0117   -1.2329    0.0000 N   0  0  0  0  0  0  0  0  0  0  0  0
    0.4008   -1.9473    0.0000 C   0  0  0  0  0  0  0  0  0  0  0  0
   -0.0117   -2.6618    0.0000 O   0  0  0  0  0  0  0  0  0  0  0  0
    1.2258   -1.9473    0.0000 C   0  0  0  0  0  0  0  0  0  0  0  0
    1.7107   -2.6148    0.0000 C   0  0  0  0  0  0  0  0  0  0  0  0
    2.4953   -2.3598    0.0000 C   0  0  0  0  0  0  0  0  0  0  0  0
    2.4953   -1.5348    0.0000 C   0  0  0  0  0  0  0  0  0  0  0  0
    1.7107   -1.2799    0.0000 O   0  0  0  0  0  0  0  0  0  0  0  0
    0.4008   -0.5184    0.0000 C   0  0  0  0  0  0  0  0  0  0  0  0
   -0.0117    0.1961    0.0000 C   0  0  0  0  0  0  0  0  0  0  0  0
    0.4008    0.9105    0.0000 C   0  0  0  0  0  0  0  0  0  0  0  0
    1.2258    0.9105    0.0000 C   0  0  0  0  0  0  0  0  0  0  0  0
    1.6383    0.1961    0.0000 C   0  0  0  0  0  0  0  0  0  0  0  0
    1.2258   -0.5184    0.0000 C   0  0  0  0  0  0  0  0  0  0  0  0
    1.6383    1.6250    0.0000 C   0  0  0  0  0  0  0  0  0  0  0  0
    1.2258    2.3395    0.0000 N   0  0  0  0  0  0  0  0  0  0  0  0
    1.6383    3.0540    0.0000 C   0  0  0  0  0  0  0  0  0  0  0  0
    2.4633    3.0540    0.0000 C   0  0  0  0  0  0  0  0  0  0  0  0
    2.8758    2.3395    0.0000 C   0  0  0  0  0  0  0  0  0  0  0  0
    2.4633    1.6250    0.0000 C   0  0  0  0  0  0  0  0  0  0  0  0
   -1.2492   -0.5184    0.0000 C   0  0  0  0  0  0  0  0  0  0  0  0
   -2.0742   -0.5184    0.0000 C   0  0  0  0  0  0  0  0  0  0  0  0
   -2.4867    0.1961    0.0000 C   0  0  0  0  0  0  0  0  0  0  0  0
   -2.0742    0.9105    0.0000 C   0  0  0  0  0  0  0  0  0  0  0  0
   -1.2492    0.9105    0.0000 N   0  0  0  0  0  0  0  0  0  0  0  0
   -0.8367    0.1961    0.0000 C   0  0  0  0  0  0  0  0  0  0  0  0
   -2.0742   -3.3763    0.0000 C   0  0  0  0  0  0  0  0  0  0  0  0
   -1.2492   -3.3763    0.0000 C   0  0  0  0  0  0  0  0  0  0  0  0
   -0.8367   -4.0908    0.0000 C   0  0  0  0  0  0  0  0  0  0  0  0
   -1.2492   -4.8052    0.0000 C   0  0  0  0  0  0  0  0  0  0  0  0
   -2.0742   -4.8052    0.0000 C   0  0  0  0  0  0  0  0  0  0  0  0
   -2.4867   -4.0908    0.0000 C   0  0  0  0  0  0  0  0  0  0  0  0
   -3.3117   -1.8368    0.0000 H   0  0  0  0  0  0  0  0  0  0  0  0
   -4.1367   -2.6618    0.0000 H   0  0  0  0  0  0  0  0  0  0  0  0
   -3.3117   -3.4868    0.0000 H   0  0  0  0  0  0  0  0  0  0  0  0
   -2.8992   -1.9473    0.0000 H   0  0  0  0  0  0  0  0  0  0  0  0
   -2.0742   -1.1223    0.0000 H   0  0  0  0  0  0  0  0  0  0  0  0
   -0.4242   -1.9473    0.0000 H   0  0  0  0  0  0  0  0  0  0  0  0
    1.4557   -3.3994    0.0000 H   0  0  0  0  0  0  0  0  0  0  0  0
    3.1627   -2.8448    0.0000 H   0  0  0  0  0  0  0  0  0  0  0  0
    3.1627   -1.0499    0.0000 H   0  0  0  0  0  0  0  0  0  0  0  0
   -0.4242   -0.5184    0.0000 H   0  0  0  0  0  0  0  0  0  0  0  0
   -0.0117    1.6250    0.0000 H   0  0  0  0  0  0  0  0  0  0  0  0
    2.4633    0.1961    0.0000 H   0  0  0  0  0  0  0  0  0  0  0  0
    0.8289   -1.2417    0.0000 H   0  0  0  0  0  0  0  0  0  0  0  0
    1.2258    3.7684    0.0000 H   0  0  0  0  0  0  0  0  0  0  0  0
    2.8758    3.7684    0.0000 H   0  0  0  0  0  0  0  0  0  0  0  0
    3.7008    2.3395    0.0000 H   0  0  0  0  0  0  0  0  0  0  0  0
    2.8758    0.9105    0.0000 H   0  0  0  0  0  0  0  0  0  0  0  0
   -2.8711   -0.7319    0.0000 H   0  0  0  0  0  0  0  0  0  0  0  0
   -3.3117    0.1961    0.0000 H   0  0  0  0  0  0  0  0  0  0  0  0
   -2.4867    1.6250    0.0000 H   0  0  0  0  0  0  0  0  0  0  0  0
   -1.6617    0.1961    0.0000 H   0  0  0  0  0  0  0  0  0  0  0  0
   -1.6617   -2.6618    0.0000 H   0  0  0  0  0  0  0  0  0  0  0  0
   -0.0117   -4.0908    0.0000 H   0  0  0  0  0  0  0  0  0  0  0  0
   -0.8367   -5.5197    0.0000 H   0  0  0  0  0  0  0  0  0  0  0  0
   -2.4867   -5.5197    0.0000 H   0  0  0  0  0  0  0  0  0  0  0  0
   -3.3117   -4.0908    0.0000 H   0  0  0  0  0  0  0  0  0  0  0  0
  2  1  1  0  0  0  0
  2  3  1  0  0  0  0
  3  4  1  0  0  0  0
  4  5  2  0  0  0  0
  4  6  1  0  0  0  0
  6  7  1  0  0  0  0
  7  8  1  0  0  0  0
  8  9  2  0  0  0  0
  8 10  1  0  0  0  0
 10 11  4  0  0  0  0
 11 12  4  0  0  0  0
 12 13  4  0  0  0  0
 13 14  4  0  0  0  0
  7 15  1  0  0  0  0
 15 16  4  0  0  0  0
 16 17  4  0  0  0  0
 17 18  4  0  0  0  0
 18 19  4  0  0  0  0
 19 20  4  0  0  0  0
 18 21  1  0  0  0  0
 21 22  4  0  0  0  0
 22 23  4  0  0  0  0
 23 24  4  0  0  0  0
 24 25  4  0  0  0  0
 25 26  4  0  0  0  0
  6 27  1  0  0  0  0
 27 28  4  0  0  0  0
 28 29  4  0  0  0  0
 29 30  4  0  0  0  0
 30 31  4  0  0  0  0
 31 32  4  0  0  0  0
  2 33  1  0  0  0  0
 33 34  4  0  0  0  0
 34 35  4  0  0  0  0
 35 36  4  0  0  0  0
 36 37  4  0  0  0  0
 37 38  4  0  0  0  0
 14 10  4  0  0  0  0
 20 15  4  0  0  0  0
 26 21  4  0  0  0  0
 32 27  4  0  0  0  0
 38 33  4  0  0  0  0
  1 39  1  0  0  0  0
  1 40  1  0  0  0  0
  1 41  1  0  0  0  0
  2 42  1  0  0  0  0
  3 43  1  0  0  0  0
  6 44  1  0  0  0  0
 11 45  1  0  0  0  0
 12 46  1  0  0  0  0
 13 47  1  0  0  0  0
 16 48  1  0  0  0  0
 17 49  1  0  0  0  0
 19 50  1  0  0  0  0
 20 51  1  0  0  0  0
 23 52  1  0  0  0  0
 24 53  1  0  0  0  0
 25 54  1  0  0  0  0
 26 55  1  0  0  0  0
 28 56  1  0  0  0  0
 29 57  1  0  0  0  0
 30 58  1  0  0  0  0
 32 59  1  0  0  0  0
 34 60  1  0  0  0  0
 35 61  1  0  0  0  0
 36 62  1  0  0  0  0
 37 63  1  0  0  0  0
 38 64  1  0  0  0  0
M  END
> <Compound>
21a

>  <SMILE>
C[C@H](NC(=O)C(N(C(=O)C1=CC=CO1)C1=CC=C(C=C1)C1=NC=CC=C1)C1=CC=CN=C1)C1=CC=CC=C1

> <Relation>
=

>  <IC50 (??M)>
1.81

> <Bond Type>
Non-covalent

> <References>
10.1101/2020.12.19.423537

> <Year>
2020

> <StandardizerResult>
Remove Explicit Hydrogens (ID: RemoveExplicitH)
Dearomatize (ID: Dearomatize)
Clear Stereo (ID: ClearStereo)
Wedge Clean (ID: WedgeClean)
Mesomerize (ID: Mesomerize)
Tautomerize (ID: Tautomerize)
Aromatize (ID: Aromatize)
Add Explicit Hydrogens (ID: AddExplicitH)
Neutralize (ID: Neutralize)
Clean 2D (ID: Clean2D)

> <Molecule (InChiKey)>
DBSGFTPGMRLXJV-UHFFFAOYSA-N

> <Outcome>
Active

> <IC50 (uM)>
1.81

> <SMILES>
C[C@H](NC(=O)C(N(C(=O)C1=CC=CO1)C1=CC=C(C=C1)C1=NC=CC=C1)C1=CC=CN=C1)C1=CC=CC=C1

$$$$

  Mrv2016 04192109512D          

 70 74  0  0  0  0            999 V2000
   -3.6213   -2.7463    0.0000 C   0  0  0  0  0  0  0  0  0  0  0  0
   -2.7963   -2.7463    0.0000 C   0  0  0  0  0  0  0  0  0  0  0  0
   -2.3838   -2.0319    0.0000 N   0  0  0  0  0  0  0  0  0  0  0  0
   -1.5588   -2.0319    0.0000 C   0  0  0  0  0  0  0  0  0  0  0  0
   -1.1463   -2.7463    0.0000 O   0  0  0  0  0  0  0  0  0  0  0  0
   -1.1463   -1.3174    0.0000 C   0  0  0  0  0  0  0  0  0  0  0  0
   -0.3213   -1.3174    0.0000 N   0  0  0  0  0  0  0  0  0  0  0  0
    0.0912   -2.0319    0.0000 C   0  0  0  0  0  0  0  0  0  0  0  0
   -0.3213   -2.7463    0.0000 O   0  0  0  0  0  0  0  0  0  0  0  0
    0.9162   -2.0319    0.0000 C   0  0  0  0  0  0  0  0  0  0  0  0
    1.4011   -2.6993    0.0000 C   0  0  0  0  0  0  0  0  0  0  0  0
    2.1857   -2.4444    0.0000 C   0  0  0  0  0  0  0  0  0  0  0  0
    2.1857   -1.6194    0.0000 N   0  0  0  0  0  0  0  0  0  0  0  0
    1.4011   -1.3644    0.0000 O   0  0  0  0  0  0  0  0  0  0  0  0
    0.0912   -0.6029    0.0000 C   0  0  0  0  0  0  0  0  0  0  0  0
   -0.3213    0.1116    0.0000 C   0  0  0  0  0  0  0  0  0  0  0  0
    0.0912    0.8260    0.0000 C   0  0  0  0  0  0  0  0  0  0  0  0
    0.9162    0.8260    0.0000 C   0  0  0  0  0  0  0  0  0  0  0  0
    1.3287    0.1116    0.0000 C   0  0  0  0  0  0  0  0  0  0  0  0
    0.9162   -0.6029    0.0000 C   0  0  0  0  0  0  0  0  0  0  0  0
    1.3287    1.5405    0.0000 C   0  0  0  0  0  0  0  0  0  0  0  0
    0.9162    2.2550    0.0000 C   0  0  0  0  0  0  0  0  0  0  0  0
    1.3287    2.9694    0.0000 C   0  0  0  0  0  0  0  0  0  0  0  0
    2.1537    2.9694    0.0000 C   0  0  0  0  0  0  0  0  0  0  0  0
    2.5662    2.2550    0.0000 C   0  0  0  0  0  0  0  0  0  0  0  0
    2.1537    1.5405    0.0000 C   0  0  0  0  0  0  0  0  0  0  0  0
   -1.5588   -0.6029    0.0000 C   0  0  0  0  0  0  0  0  0  0  0  0
   -2.3838   -0.6029    0.0000 C   0  0  0  0  0  0  0  0  0  0  0  0
   -2.7963    0.1116    0.0000 C   0  0  0  0  0  0  0  0  0  0  0  0
   -2.3838    0.8260    0.0000 C   0  0  0  0  0  0  0  0  0  0  0  0
   -1.5588    0.8260    0.0000 N   0  0  0  0  0  0  0  0  0  0  0  0
   -1.1463    0.1116    0.0000 C   0  0  0  0  0  0  0  0  0  0  0  0
   -2.3838   -3.4608    0.0000 C   0  0  0  0  0  0  0  0  0  0  0  0
   -1.5588   -3.4608    0.0000 C   0  0  0  0  0  0  0  0  0  0  0  0
   -1.1463   -4.1753    0.0000 C   0  0  0  0  0  0  0  0  0  0  0  0
   -1.5588   -4.8897    0.0000 C   0  0  0  0  0  0  0  0  0  0  0  0
   -2.3838   -4.8897    0.0000 C   0  0  0  0  0  0  0  0  0  0  0  0
   -2.7963   -4.1753    0.0000 C   0  0  0  0  0  0  0  0  0  0  0  0
   -3.6213   -1.9213    0.0000 H   0  0  0  0  0  0  0  0  0  0  0  0
   -4.4463   -2.7463    0.0000 H   0  0  0  0  0  0  0  0  0  0  0  0
   -3.6213   -3.5713    0.0000 H   0  0  0  0  0  0  0  0  0  0  0  0
   -3.2088   -2.0319    0.0000 H   0  0  0  0  0  0  0  0  0  0  0  0
   -2.3838   -1.2069    0.0000 H   0  0  0  0  0  0  0  0  0  0  0  0
   -0.7338   -2.0319    0.0000 H   0  0  0  0  0  0  0  0  0  0  0  0
    1.1461   -3.4839    0.0000 H   0  0  0  0  0  0  0  0  0  0  0  0
    2.8531   -2.9293    0.0000 H   0  0  0  0  0  0  0  0  0  0  0  0
   -0.7338   -0.6029    0.0000 H   0  0  0  0  0  0  0  0  0  0  0  0
   -0.3213    1.5405    0.0000 H   0  0  0  0  0  0  0  0  0  0  0  0
    2.1537    0.1116    0.0000 H   0  0  0  0  0  0  0  0  0  0  0  0
    0.5193   -1.3262    0.0000 H   0  0  0  0  0  0  0  0  0  0  0  0
    1.7412    0.8260    0.0000 H   0  0  0  0  0  0  0  0  0  0  0  0
    0.1789    2.6252    0.0000 H   0  0  0  0  0  0  0  0  0  0  0  0
    0.1789    1.8847    0.0000 H   0  0  0  0  0  0  0  0  0  0  0  0
    1.2807    3.7930    0.0000 H   0  0  0  0  0  0  0  0  0  0  0  0
    0.6394    3.4228    0.0000 H   0  0  0  0  0  0  0  0  0  0  0  0
    2.8429    3.4228    0.0000 H   0  0  0  0  0  0  0  0  0  0  0  0
    2.2016    3.7930    0.0000 H   0  0  0  0  0  0  0  0  0  0  0  0
    3.3034    1.8847    0.0000 H   0  0  0  0  0  0  0  0  0  0  0  0
    3.3034    2.6252    0.0000 H   0  0  0  0  0  0  0  0  0  0  0  0
    2.6840    0.9085    0.0000 H   0  0  0  0  0  0  0  0  0  0  0  0
    2.9661    1.3972    0.0000 H   0  0  0  0  0  0  0  0  0  0  0  0
   -3.1807   -0.8164    0.0000 H   0  0  0  0  0  0  0  0  0  0  0  0
   -3.6213    0.1116    0.0000 H   0  0  0  0  0  0  0  0  0  0  0  0
   -2.7963    1.5405    0.0000 H   0  0  0  0  0  0  0  0  0  0  0  0
   -1.9713    0.1116    0.0000 H   0  0  0  0  0  0  0  0  0  0  0  0
   -1.9713   -2.7463    0.0000 H   0  0  0  0  0  0  0  0  0  0  0  0
   -0.3213   -4.1753    0.0000 H   0  0  0  0  0  0  0  0  0  0  0  0
   -1.1463   -5.6042    0.0000 H   0  0  0  0  0  0  0  0  0  0  0  0
   -2.7963   -5.6042    0.0000 H   0  0  0  0  0  0  0  0  0  0  0  0
   -3.6213   -4.1753    0.0000 H   0  0  0  0  0  0  0  0  0  0  0  0
  2  1  1  0  0  0  0
  2  3  1  0  0  0  0
  3  4  1  0  0  0  0
  4  5  2  0  0  0  0
  4  6  1  0  0  0  0
  6  7  1  0  0  0  0
  7  8  1  0  0  0  0
  8  9  2  0  0  0  0
  8 10  1  0  0  0  0
 10 11  4  0  0  0  0
 11 12  4  0  0  0  0
 12 13  4  0  0  0  0
 13 14  4  0  0  0  0
  7 15  1  0  0  0  0
 15 16  4  0  0  0  0
 16 17  4  0  0  0  0
 17 18  4  0  0  0  0
 18 19  4  0  0  0  0
 19 20  4  0  0  0  0
 18 21  1  0  0  0  0
 21 22  1  0  0  0  0
 22 23  1  0  0  0  0
 23 24  1  0  0  0  0
 24 25  1  0  0  0  0
 25 26  1  0  0  0  0
  6 27  1  0  0  0  0
 27 28  4  0  0  0  0
 28 29  4  0  0  0  0
 29 30  4  0  0  0  0
 30 31  4  0  0  0  0
 31 32  4  0  0  0  0
  2 33  1  0  0  0  0
 33 34  4  0  0  0  0
 34 35  4  0  0  0  0
 35 36  4  0  0  0  0
 36 37  4  0  0  0  0
 37 38  4  0  0  0  0
 14 10  4  0  0  0  0
 20 15  4  0  0  0  0
 26 21  1  0  0  0  0
 32 27  4  0  0  0  0
 38 33  4  0  0  0  0
  1 39  1  0  0  0  0
  1 40  1  0  0  0  0
  1 41  1  0  0  0  0
  2 42  1  0  0  0  0
  3 43  1  0  0  0  0
  6 44  1  0  0  0  0
 11 45  1  0  0  0  0
 12 46  1  0  0  0  0
 16 47  1  0  0  0  0
 17 48  1  0  0  0  0
 19 49  1  0  0  0  0
 20 50  1  0  0  0  0
 21 51  1  0  0  0  0
 22 52  1  0  0  0  0
 22 53  1  0  0  0  0
 23 54  1  0  0  0  0
 23 55  1  0  0  0  0
 24 56  1  0  0  0  0
 24 57  1  0  0  0  0
 25 58  1  0  0  0  0
 25 59  1  0  0  0  0
 26 60  1  0  0  0  0
 26 61  1  0  0  0  0
 28 62  1  0  0  0  0
 29 63  1  0  0  0  0
 30 64  1  0  0  0  0
 32 65  1  0  0  0  0
 34 66  1  0  0  0  0
 35 67  1  0  0  0  0
 36 68  1  0  0  0  0
 37 69  1  0  0  0  0
 38 70  1  0  0  0  0
M  END
> <Compound>
36a

>  <SMILE>
C[C@H](NC(=O)C(N(C(=O)C1=CC=NO1)C1=CC=C(C=C1)C1CCCCC1)C1=CC=CN=C1)C1=CC=CC=C1

> <Relation>
=

>  <IC50 (??M)>
0.81

> <Bond Type>
Non-covalent

> <References>
10.1101/2020.12.19.423537

> <Year>
2020

> <StandardizerResult>
Remove Explicit Hydrogens (ID: RemoveExplicitH)
Dearomatize (ID: Dearomatize)
Clear Stereo (ID: ClearStereo)
Wedge Clean (ID: WedgeClean)
Mesomerize (ID: Mesomerize)
Tautomerize (ID: Tautomerize)
Aromatize (ID: Aromatize)
Add Explicit Hydrogens (ID: AddExplicitH)
Neutralize (ID: Neutralize)
Clean 2D (ID: Clean2D)

> <Molecule (InChiKey)>
DFVOOMGEUDYSTE-UHFFFAOYSA-N

> <Outcome>
Active

> <IC50 (uM)>
0.81

> <SMILES>
C[C@H](NC(=O)C(N(C(=O)C1=CC=NO1)C1=CC=C(C=C1)C1CCCCC1)C1=CC=CN=C1)C1=CC=CC=C1

$$$$

  Mrv2016 04192109512D          

 55 59  0  0  0  0            999 V2000
    1.5153    4.5211    0.0000 F   0  0  0  0  0  0  0  0  0  0  0  0
    1.5153    3.6961    0.0000 C   0  0  0  0  0  0  0  0  0  0  0  0
    2.2298    3.2836    0.0000 C   0  0  0  0  0  0  0  0  0  0  0  0
    2.2298    2.4586    0.0000 C   0  0  0  0  0  0  0  0  0  0  0  0
    1.5153    2.0461    0.0000 C   0  0  0  0  0  0  0  0  0  0  0  0
    0.8008    2.4586    0.0000 C   0  0  0  0  0  0  0  0  0  0  0  0
    0.0864    2.0461    0.0000 C   0  0  0  0  0  0  0  0  0  0  0  0
   -0.6281    2.4586    0.0000 O   0  0  0  0  0  0  0  0  0  0  0  0
   -1.3426    2.0461    0.0000 C   0  0  0  0  0  0  0  0  0  0  0  0
   -1.3426    1.2211    0.0000 C   0  0  0  0  0  0  0  0  0  0  0  0
   -2.0570    0.8086    0.0000 C   0  0  0  0  0  0  0  0  0  0  0  0
   -2.0570   -0.0164    0.0000 Cl  0  0  0  0  0  0  0  0  0  0  0  0
   -2.7715    1.2211    0.0000 C   0  0  0  0  0  0  0  0  0  0  0  0
   -2.7715    2.0461    0.0000 C   0  0  0  0  0  0  0  0  0  0  0  0
   -2.0570    2.4586    0.0000 C   0  0  0  0  0  0  0  0  0  0  0  0
   -3.4860    2.4586    0.0000 C   0  0  0  0  0  0  0  0  0  0  0  0
   -4.2005    2.0461    0.0000 C   0  0  0  0  0  0  0  0  0  0  0  0
   -4.9149    2.4586    0.0000 C   0  0  0  0  0  0  0  0  0  0  0  0
   -4.9149    3.2836    0.0000 C   0  0  0  0  0  0  0  0  0  0  0  0
   -4.2005    3.6961    0.0000 N   0  0  0  0  0  0  0  0  0  0  0  0
   -3.4860    3.2836    0.0000 C   0  0  0  0  0  0  0  0  0  0  0  0
   -2.7715    3.6961    0.0000 O   0  0  0  0  0  0  0  0  0  0  0  0
   -4.2005    4.5211    0.0000 C   0  0  0  0  0  0  0  0  0  0  0  0
   -4.9149    4.9336    0.0000 C   0  0  0  0  0  0  0  0  0  0  0  0
   -4.9149    5.7586    0.0000 N   0  0  0  0  0  0  0  0  0  0  0  0
   -4.2005    6.1711    0.0000 C   0  0  0  0  0  0  0  0  0  0  0  0
   -3.4860    5.7586    0.0000 C   0  0  0  0  0  0  0  0  0  0  0  0
   -3.4860    4.9336    0.0000 C   0  0  0  0  0  0  0  0  0  0  0  0
   -5.6294    2.0461    0.0000 C   0  0  0  0  0  0  0  0  0  0  0  0
   -5.6294    1.2211    0.0000 C   0  0  0  0  0  0  0  0  0  0  0  0
   -6.3439    0.8086    0.0000 N   0  0  0  0  0  0  0  0  0  0  0  0
   -7.0583    1.2211    0.0000 C   0  0  0  0  0  0  0  0  0  0  0  0
   -7.7728    0.8086    0.0000 O   0  0  0  0  0  0  0  0  0  0  0  0
   -7.0583    2.0461    0.0000 N   0  0  0  0  0  0  0  0  0  0  0  0
   -6.3439    2.4586    0.0000 C   0  0  0  0  0  0  0  0  0  0  0  0
   -6.3439    3.2836    0.0000 O   0  0  0  0  0  0  0  0  0  0  0  0
    0.8008    3.2836    0.0000 C   0  0  0  0  0  0  0  0  0  0  0  0
    2.9443    3.6961    0.0000 H   0  0  0  0  0  0  0  0  0  0  0  0
    2.9443    2.0461    0.0000 H   0  0  0  0  0  0  0  0  0  0  0  0
    1.5153    1.2211    0.0000 H   0  0  0  0  0  0  0  0  0  0  0  0
   -0.2839    1.3089    0.0000 H   0  0  0  0  0  0  0  0  0  0  0  0
    0.4566    1.3089    0.0000 H   0  0  0  0  0  0  0  0  0  0  0  0
   -0.6281    0.8086    0.0000 H   0  0  0  0  0  0  0  0  0  0  0  0
   -3.4860    0.8086    0.0000 H   0  0  0  0  0  0  0  0  0  0  0  0
   -2.0570    3.2836    0.0000 H   0  0  0  0  0  0  0  0  0  0  0  0
   -4.2005    1.2211    0.0000 H   0  0  0  0  0  0  0  0  0  0  0  0
   -5.6294    3.6961    0.0000 H   0  0  0  0  0  0  0  0  0  0  0  0
   -5.6294    4.5211    0.0000 H   0  0  0  0  0  0  0  0  0  0  0  0
   -4.2005    6.9961    0.0000 H   0  0  0  0  0  0  0  0  0  0  0  0
   -2.7715    6.1711    0.0000 H   0  0  0  0  0  0  0  0  0  0  0  0
   -2.7715    4.5211    0.0000 H   0  0  0  0  0  0  0  0  0  0  0  0
   -4.9149    0.8086    0.0000 H   0  0  0  0  0  0  0  0  0  0  0  0
   -6.3439   -0.0164    0.0000 H   0  0  0  0  0  0  0  0  0  0  0  0
   -7.7728    2.4586    0.0000 H   0  0  0  0  0  0  0  0  0  0  0  0
    0.0864    3.6961    0.0000 H   0  0  0  0  0  0  0  0  0  0  0  0
  1  2  1  0  0  0  0
  2  3  4  0  0  0  0
  3  4  4  0  0  0  0
  4  5  4  0  0  0  0
  5  6  4  0  0  0  0
  6  7  1  0  0  0  0
  7  8  1  0  0  0  0
  8  9  1  0  0  0  0
  9 10  4  0  0  0  0
 10 11  4  0  0  0  0
 11 12  1  0  0  0  0
 11 13  4  0  0  0  0
 13 14  4  0  0  0  0
 14 15  4  0  0  0  0
 14 16  1  0  0  0  0
 16 17  2  0  0  0  0
 17 18  1  0  0  0  0
 18 19  2  0  0  0  0
 19 20  1  0  0  0  0
 20 21  1  0  0  0  0
 21 22  2  0  0  0  0
 20 23  1  0  0  0  0
 23 24  4  0  0  0  0
 24 25  4  0  0  0  0
 25 26  4  0  0  0  0
 26 27  4  0  0  0  0
 27 28  4  0  0  0  0
 18 29  1  0  0  0  0
 29 30  2  0  0  0  0
 30 31  1  0  0  0  0
 31 32  1  0  0  0  0
 32 33  2  0  0  0  0
 32 34  1  0  0  0  0
 34 35  1  0  0  0  0
 35 36  2  0  0  0  0
  6 37  4  0  0  0  0
 37  2  4  0  0  0  0
 15  9  4  0  0  0  0
 21 16  1  0  0  0  0
 28 23  4  0  0  0  0
 35 29  1  0  0  0  0
  3 38  1  0  0  0  0
  4 39  1  0  0  0  0
  5 40  1  0  0  0  0
  7 41  1  0  0  0  0
  7 42  1  0  0  0  0
 10 43  1  0  0  0  0
 13 44  1  0  0  0  0
 15 45  1  0  0  0  0
 17 46  1  0  0  0  0
 19 47  1  0  0  0  0
 24 48  1  0  0  0  0
 26 49  1  0  0  0  0
 27 50  1  0  0  0  0
 28 51  1  0  0  0  0
 30 52  1  0  0  0  0
 31 53  1  0  0  0  0
 34 54  1  0  0  0  0
 37 55  1  0  0  0  0
M  END
> <Compound>
19

>  <SMILE>
FC1=CC=CC(COC2=CC(Cl)=CC(=C2)C2=CC(=CN(C2=O)C2=CN=CC=C2)C2=CNC(=O)NC2=O)=C1

> <Relation>
=

>  <IC50 (??M)>
0.037

> <Bond Type>
Non-covalent

> <References>
https://doi.org/10.1021/acscentsci.1c00039

> <Year>
2020

> <StandardizerResult>
Remove Explicit Hydrogens (ID: RemoveExplicitH)
Dearomatize (ID: Dearomatize)
Clear Stereo (ID: ClearStereo)
Wedge Clean (ID: WedgeClean)
Mesomerize (ID: Mesomerize)
Tautomerize (ID: Tautomerize)
Aromatize (ID: Aromatize)
Add Explicit Hydrogens (ID: AddExplicitH)
Neutralize (ID: Neutralize)
Clean 2D (ID: Clean2D)

> <Molecule (InChiKey)>
DGQRJEVFDWWDCX-UHFFFAOYSA-N

> <Outcome>
Active

> <IC50 (uM)>
0.037

> <SMILES>
FC1=CC=CC(COC2=CC(Cl)=CC(=C2)C2=CC(=CN(C2=O)C2=CN=CC=C2)C2=CNC(=O)NC2=O)=C1

$$$$

  Mrv2016 04192109512D          

 55 59  0  0  0  0            999 V2000
   -2.2250    2.0105    0.0000 F   0  0  0  0  0  0  0  0  0  0  0  0
   -2.2250    1.1855    0.0000 C   0  0  0  0  0  0  0  0  0  0  0  0
   -1.5105    0.7730    0.0000 C   0  0  0  0  0  0  0  0  0  0  0  0
   -0.7960    1.1855    0.0000 O   0  0  0  0  0  0  0  0  0  0  0  0
   -0.7960    2.0105    0.0000 C   0  0  0  0  0  0  0  0  0  0  0  0
   -0.0816    2.4230    0.0000 C   0  0  0  0  0  0  0  0  0  0  0  0
   -0.0816    3.2480    0.0000 C   0  0  0  0  0  0  0  0  0  0  0  0
   -0.7960    3.6605    0.0000 Cl  0  0  0  0  0  0  0  0  0  0  0  0
    0.6329    3.6605    0.0000 C   0  0  0  0  0  0  0  0  0  0  0  0
    1.3474    3.2480    0.0000 C   0  0  0  0  0  0  0  0  0  0  0  0
    1.3474    2.4230    0.0000 C   0  0  0  0  0  0  0  0  0  0  0  0
    0.6329    2.0105    0.0000 C   0  0  0  0  0  0  0  0  0  0  0  0
   -1.5105   -0.0520    0.0000 C   0  0  0  0  0  0  0  0  0  0  0  0
   -2.2250   -0.4645    0.0000 C   0  0  0  0  0  0  0  0  0  0  0  0
   -2.9394   -0.0520    0.0000 C   0  0  0  0  0  0  0  0  0  0  0  0
   -2.9394    0.7730    0.0000 C   0  0  0  0  0  0  0  0  0  0  0  0
   -3.6539    1.1855    0.0000 Cl  0  0  0  0  0  0  0  0  0  0  0  0
   -2.2250   -1.2895    0.0000 C   0  0  0  0  0  0  0  0  0  0  0  0
   -1.5105   -1.7020    0.0000 C   0  0  0  0  0  0  0  0  0  0  0  0
   -1.5105   -2.5270    0.0000 C   0  0  0  0  0  0  0  0  0  0  0  0
   -2.2250   -2.9395    0.0000 C   0  0  0  0  0  0  0  0  0  0  0  0
   -2.9394   -2.5270    0.0000 N   0  0  0  0  0  0  0  0  0  0  0  0
   -2.9394   -1.7020    0.0000 C   0  0  0  0  0  0  0  0  0  0  0  0
   -3.6539   -1.2895    0.0000 O   0  0  0  0  0  0  0  0  0  0  0  0
   -3.6539   -2.9395    0.0000 C   0  0  0  0  0  0  0  0  0  0  0  0
   -3.6539   -3.7645    0.0000 C   0  0  0  0  0  0  0  0  0  0  0  0
   -4.3684   -4.1770    0.0000 N   0  0  0  0  0  0  0  0  0  0  0  0
   -5.0829   -3.7645    0.0000 C   0  0  0  0  0  0  0  0  0  0  0  0
   -5.0829   -2.9395    0.0000 C   0  0  0  0  0  0  0  0  0  0  0  0
   -4.3684   -2.5270    0.0000 C   0  0  0  0  0  0  0  0  0  0  0  0
   -0.7960   -2.9395    0.0000 C   0  0  0  0  0  0  0  0  0  0  0  0
   -0.0816   -2.5270    0.0000 C   0  0  0  0  0  0  0  0  0  0  0  0
    0.6329   -2.9395    0.0000 N   0  0  0  0  0  0  0  0  0  0  0  0
    0.6329   -3.7645    0.0000 C   0  0  0  0  0  0  0  0  0  0  0  0
    1.3474   -4.1770    0.0000 O   0  0  0  0  0  0  0  0  0  0  0  0
   -0.0816   -4.1770    0.0000 N   0  0  0  0  0  0  0  0  0  0  0  0
   -0.7960   -3.7645    0.0000 C   0  0  0  0  0  0  0  0  0  0  0  0
   -1.5105   -4.1770    0.0000 O   0  0  0  0  0  0  0  0  0  0  0  0
   -1.2494    2.6998    0.0000 H   0  0  0  0  0  0  0  0  0  0  0  0
   -1.6196    2.0585    0.0000 H   0  0  0  0  0  0  0  0  0  0  0  0
    0.6329    4.4855    0.0000 H   0  0  0  0  0  0  0  0  0  0  0  0
    2.0619    3.6605    0.0000 H   0  0  0  0  0  0  0  0  0  0  0  0
    2.0619    2.0105    0.0000 H   0  0  0  0  0  0  0  0  0  0  0  0
    0.6329    1.1855    0.0000 H   0  0  0  0  0  0  0  0  0  0  0  0
   -0.7960   -0.4645    0.0000 H   0  0  0  0  0  0  0  0  0  0  0  0
   -3.6539   -0.4645    0.0000 H   0  0  0  0  0  0  0  0  0  0  0  0
   -0.7960   -1.2895    0.0000 H   0  0  0  0  0  0  0  0  0  0  0  0
   -2.2250   -3.7645    0.0000 H   0  0  0  0  0  0  0  0  0  0  0  0
   -2.9394   -4.1770    0.0000 H   0  0  0  0  0  0  0  0  0  0  0  0
   -5.7973   -4.1770    0.0000 H   0  0  0  0  0  0  0  0  0  0  0  0
   -5.7973   -2.5270    0.0000 H   0  0  0  0  0  0  0  0  0  0  0  0
   -4.3684   -1.7020    0.0000 H   0  0  0  0  0  0  0  0  0  0  0  0
   -0.0816   -1.7020    0.0000 H   0  0  0  0  0  0  0  0  0  0  0  0
    1.3474   -2.5270    0.0000 H   0  0  0  0  0  0  0  0  0  0  0  0
   -0.0816   -5.0020    0.0000 H   0  0  0  0  0  0  0  0  0  0  0  0
  1  2  1  0  0  0  0
  2  3  4  0  0  0  0
  3  4  1  0  0  0  0
  4  5  1  0  0  0  0
  5  6  1  0  0  0  0
  6  7  4  0  0  0  0
  7  8  1  0  0  0  0
  7  9  4  0  0  0  0
  9 10  4  0  0  0  0
 10 11  4  0  0  0  0
 11 12  4  0  0  0  0
  3 13  4  0  0  0  0
 13 14  4  0  0  0  0
 14 15  4  0  0  0  0
 15 16  4  0  0  0  0
 16 17  1  0  0  0  0
 14 18  1  0  0  0  0
 18 19  2  0  0  0  0
 19 20  1  0  0  0  0
 20 21  2  0  0  0  0
 21 22  1  0  0  0  0
 22 23  1  0  0  0  0
 23 24  2  0  0  0  0
 22 25  1  0  0  0  0
 25 26  4  0  0  0  0
 26 27  4  0  0  0  0
 27 28  4  0  0  0  0
 28 29  4  0  0  0  0
 29 30  4  0  0  0  0
 20 31  1  0  0  0  0
 31 32  2  0  0  0  0
 32 33  1  0  0  0  0
 33 34  1  0  0  0  0
 34 35  2  0  0  0  0
 34 36  1  0  0  0  0
 36 37  1  0  0  0  0
 37 38  2  0  0  0  0
 16  2  4  0  0  0  0
 23 18  1  0  0  0  0
 30 25  4  0  0  0  0
 37 31  1  0  0  0  0
 12  6  4  0  0  0  0
  5 39  1  0  0  0  0
  5 40  1  0  0  0  0
  9 41  1  0  0  0  0
 10 42  1  0  0  0  0
 11 43  1  0  0  0  0
 12 44  1  0  0  0  0
 13 45  1  0  0  0  0
 15 46  1  0  0  0  0
 19 47  1  0  0  0  0
 21 48  1  0  0  0  0
 26 49  1  0  0  0  0
 28 50  1  0  0  0  0
 29 51  1  0  0  0  0
 30 52  1  0  0  0  0
 32 53  1  0  0  0  0
 33 54  1  0  0  0  0
 36 55  1  0  0  0  0
M  END
> <Compound>
23

>  <SMILE>
FC1=C(OCC2=C(Cl)C=CC=C2)C=C(C=C1Cl)C1=CC(=CN(C1=O)C1=CN=CC=C1)C1=CNC(=O)NC1=O

> <Relation>
=

>  <IC50 (??M)>
0.02

> <Bond Type>
Non-covalent

> <References>
https://doi.org/10.1021/acscentsci.1c00039

> <Year>
2020

> <StandardizerResult>
Remove Explicit Hydrogens (ID: RemoveExplicitH)
Dearomatize (ID: Dearomatize)
Clear Stereo (ID: ClearStereo)
Wedge Clean (ID: WedgeClean)
Mesomerize (ID: Mesomerize)
Tautomerize (ID: Tautomerize)
Aromatize (ID: Aromatize)
Add Explicit Hydrogens (ID: AddExplicitH)
Neutralize (ID: Neutralize)
Clean 2D (ID: Clean2D)

> <Molecule (InChiKey)>
FBYZCSUBKCAJAK-UHFFFAOYSA-N

> <Outcome>
Active

> <IC50 (uM)>
0.02

> <SMILES>
FC1=C(OCC2=C(Cl)C=CC=C2)C=C(C=C1Cl)C1=CC(=CN(C1=O)C1=CN=CC=C1)C1=CNC(=O)NC1=O

$$$$

  Mrv2016 04192109512D          

 51 54  0  0  0  0            999 V2000
    2.4998    5.2298    0.0000 C   0  0  0  0  0  0  0  0  0  0  0  0
    1.7854    4.8173    0.0000 C   0  0  0  0  0  0  0  0  0  0  0  0
    1.7854    3.9923    0.0000 C   0  0  0  0  0  0  0  0  0  0  0  0
    1.0709    3.5798    0.0000 O   0  0  0  0  0  0  0  0  0  0  0  0
    1.0709    2.7548    0.0000 C   0  0  0  0  0  0  0  0  0  0  0  0
    1.7854    2.3423    0.0000 C   0  0  0  0  0  0  0  0  0  0  0  0
    1.7854    1.5173    0.0000 C   0  0  0  0  0  0  0  0  0  0  0  0
    2.4998    1.1048    0.0000 Cl  0  0  0  0  0  0  0  0  0  0  0  0
    1.0709    1.1048    0.0000 C   0  0  0  0  0  0  0  0  0  0  0  0
    0.3564    1.5173    0.0000 C   0  0  0  0  0  0  0  0  0  0  0  0
    0.3564    2.3423    0.0000 C   0  0  0  0  0  0  0  0  0  0  0  0
   -0.3580    1.1048    0.0000 C   0  0  0  0  0  0  0  0  0  0  0  0
   -0.3580    0.2798    0.0000 C   0  0  0  0  0  0  0  0  0  0  0  0
   -1.0725   -0.1327    0.0000 C   0  0  0  0  0  0  0  0  0  0  0  0
   -1.7870    0.2798    0.0000 C   0  0  0  0  0  0  0  0  0  0  0  0
   -1.7870    1.1048    0.0000 N   0  0  0  0  0  0  0  0  0  0  0  0
   -1.0725    1.5173    0.0000 C   0  0  0  0  0  0  0  0  0  0  0  0
   -1.0725    2.3423    0.0000 O   0  0  0  0  0  0  0  0  0  0  0  0
   -2.5015    1.5173    0.0000 C   0  0  0  0  0  0  0  0  0  0  0  0
   -3.2159    1.1048    0.0000 C   0  0  0  0  0  0  0  0  0  0  0  0
   -3.9304    1.5173    0.0000 N   0  0  0  0  0  0  0  0  0  0  0  0
   -3.9304    2.3423    0.0000 C   0  0  0  0  0  0  0  0  0  0  0  0
   -3.2159    2.7548    0.0000 C   0  0  0  0  0  0  0  0  0  0  0  0
   -2.5015    2.3423    0.0000 C   0  0  0  0  0  0  0  0  0  0  0  0
   -1.0725   -0.9577    0.0000 C   0  0  0  0  0  0  0  0  0  0  0  0
   -0.3580   -1.3702    0.0000 C   0  0  0  0  0  0  0  0  0  0  0  0
   -0.3580   -2.1952    0.0000 N   0  0  0  0  0  0  0  0  0  0  0  0
   -1.0725   -2.6077    0.0000 C   0  0  0  0  0  0  0  0  0  0  0  0
   -1.0725   -3.4327    0.0000 O   0  0  0  0  0  0  0  0  0  0  0  0
   -1.7870   -2.1952    0.0000 N   0  0  0  0  0  0  0  0  0  0  0  0
   -1.7870   -1.3702    0.0000 C   0  0  0  0  0  0  0  0  0  0  0  0
   -2.5015   -0.9577    0.0000 O   0  0  0  0  0  0  0  0  0  0  0  0
    2.9123    4.5153    0.0000 H   0  0  0  0  0  0  0  0  0  0  0  0
    3.2143    5.6423    0.0000 H   0  0  0  0  0  0  0  0  0  0  0  0
    2.0873    5.9443    0.0000 H   0  0  0  0  0  0  0  0  0  0  0  0
    1.3320    5.5066    0.0000 H   0  0  0  0  0  0  0  0  0  0  0  0
    0.9618    4.8653    0.0000 H   0  0  0  0  0  0  0  0  0  0  0  0
    2.2387    3.3030    0.0000 H   0  0  0  0  0  0  0  0  0  0  0  0
    2.6090    3.9443    0.0000 H   0  0  0  0  0  0  0  0  0  0  0  0
    2.4998    2.7548    0.0000 H   0  0  0  0  0  0  0  0  0  0  0  0
    1.0709    0.2798    0.0000 H   0  0  0  0  0  0  0  0  0  0  0  0
   -0.3580    2.7548    0.0000 H   0  0  0  0  0  0  0  0  0  0  0  0
    0.3564   -0.1327    0.0000 H   0  0  0  0  0  0  0  0  0  0  0  0
   -2.5015   -0.1327    0.0000 H   0  0  0  0  0  0  0  0  0  0  0  0
   -3.2159    0.2798    0.0000 H   0  0  0  0  0  0  0  0  0  0  0  0
   -4.6449    2.7548    0.0000 H   0  0  0  0  0  0  0  0  0  0  0  0
   -3.2159    3.5798    0.0000 H   0  0  0  0  0  0  0  0  0  0  0  0
   -1.7870    2.7548    0.0000 H   0  0  0  0  0  0  0  0  0  0  0  0
    0.3564   -0.9577    0.0000 H   0  0  0  0  0  0  0  0  0  0  0  0
    0.3564   -2.6077    0.0000 H   0  0  0  0  0  0  0  0  0  0  0  0
   -2.5015   -2.6077    0.0000 H   0  0  0  0  0  0  0  0  0  0  0  0
  1  2  1  0  0  0  0
  2  3  1  0  0  0  0
  3  4  1  0  0  0  0
  4  5  1  0  0  0  0
  5  6  4  0  0  0  0
  6  7  4  0  0  0  0
  7  8  1  0  0  0  0
  7  9  4  0  0  0  0
  9 10  4  0  0  0  0
 10 11  4  0  0  0  0
 10 12  1  0  0  0  0
 12 13  2  0  0  0  0
 13 14  1  0  0  0  0
 14 15  2  0  0  0  0
 15 16  1  0  0  0  0
 16 17  1  0  0  0  0
 17 18  2  0  0  0  0
 16 19  1  0  0  0  0
 19 20  4  0  0  0  0
 20 21  4  0  0  0  0
 21 22  4  0  0  0  0
 22 23  4  0  0  0  0
 23 24  4  0  0  0  0
 14 25  1  0  0  0  0
 25 26  2  0  0  0  0
 26 27  1  0  0  0  0
 27 28  1  0  0  0  0
 28 29  2  0  0  0  0
 28 30  1  0  0  0  0
 30 31  1  0  0  0  0
 31 32  2  0  0  0  0
 11  5  4  0  0  0  0
 17 12  1  0  0  0  0
 24 19  4  0  0  0  0
 31 25  1  0  0  0  0
  1 33  1  0  0  0  0
  1 34  1  0  0  0  0
  1 35  1  0  0  0  0
  2 36  1  0  0  0  0
  2 37  1  0  0  0  0
  3 38  1  0  0  0  0
  3 39  1  0  0  0  0
  6 40  1  0  0  0  0
  9 41  1  0  0  0  0
 11 42  1  0  0  0  0
 13 43  1  0  0  0  0
 15 44  1  0  0  0  0
 20 45  1  0  0  0  0
 22 46  1  0  0  0  0
 23 47  1  0  0  0  0
 24 48  1  0  0  0  0
 26 49  1  0  0  0  0
 27 50  1  0  0  0  0
 30 51  1  0  0  0  0
M  END
> <Compound>
11

>  <SMILE>
CCCOC1=CC(Cl)=CC(=C1)C1=CC(=CN(C1=O)C1=CN=CC=C1)C1=CNC(=O)NC1=O

> <Relation>
=

>  <IC50 (??M)>
0.12

> <Bond Type>
Non-covalent

> <References>
https://doi.org/10.1021/acscentsci.1c00039

> <Year>
2020

> <StandardizerResult>
Remove Explicit Hydrogens (ID: RemoveExplicitH)
Dearomatize (ID: Dearomatize)
Clear Stereo (ID: ClearStereo)
Wedge Clean (ID: WedgeClean)
Mesomerize (ID: Mesomerize)
Tautomerize (ID: Tautomerize)
Aromatize (ID: Aromatize)
Add Explicit Hydrogens (ID: AddExplicitH)
Neutralize (ID: Neutralize)
Clean 2D (ID: Clean2D)

> <Molecule (InChiKey)>
GJCBTWHGKCNYAB-UHFFFAOYSA-N

> <Outcome>
Active

> <IC50 (uM)>
0.12

> <SMILES>
CCCOC1=CC(Cl)=CC(=C1)C1=CC(=CN(C1=O)C1=CN=CC=C1)C1=CNC(=O)NC1=O

$$$$

  Mrv2016 04192109512D          

 73 76  0  0  0  0            999 V2000
    3.1981    1.1471    0.0000 C   0  0  0  0  0  0  0  0  0  0  0  0
    3.1981    0.3221    0.0000 C   0  0  0  0  0  0  0  0  0  0  0  0
    2.3731    0.3221    0.0000 C   0  0  0  0  0  0  0  0  0  0  0  0
    4.0231    0.3221    0.0000 C   0  0  0  0  0  0  0  0  0  0  0  0
    3.1981   -0.5029    0.0000 C   0  0  0  0  0  0  0  0  0  0  0  0
    2.4836   -0.9154    0.0000 C   0  0  0  0  0  0  0  0  0  0  0  0
    2.0711   -0.2009    0.0000 C   0  0  0  0  0  0  0  0  0  0  0  0
    2.8961   -1.6299    0.0000 C   0  0  0  0  0  0  0  0  0  0  0  0
    1.7691   -1.3279    0.0000 N   0  0  0  0  0  0  0  0  0  0  0  0
    1.0547   -0.9154    0.0000 C   0  0  0  0  0  0  0  0  0  0  0  0
    1.0547   -0.0904    0.0000 O   0  0  0  0  0  0  0  0  0  0  0  0
    0.3402   -1.3279    0.0000 C   0  0  0  0  0  0  0  0  0  0  0  0
    0.3402   -2.1529    0.0000 N   0  0  0  0  0  0  0  0  0  0  0  0
    1.0547   -2.5654    0.0000 C   0  0  0  0  0  0  0  0  0  0  0  0
    1.7691   -2.1529    0.0000 O   0  0  0  0  0  0  0  0  0  0  0  0
    1.0547   -3.3904    0.0000 C   0  0  0  0  0  0  0  0  0  0  0  0
    0.3872   -3.8753    0.0000 C   0  0  0  0  0  0  0  0  0  0  0  0
    0.6422   -4.6600    0.0000 C   0  0  0  0  0  0  0  0  0  0  0  0
    1.4672   -4.6600    0.0000 C   0  0  0  0  0  0  0  0  0  0  0  0
    1.7221   -3.8753    0.0000 O   0  0  0  0  0  0  0  0  0  0  0  0
   -0.3743   -2.5654    0.0000 C   0  0  0  0  0  0  0  0  0  0  0  0
   -0.3743   -3.3904    0.0000 C   0  0  0  0  0  0  0  0  0  0  0  0
   -1.0887   -3.8029    0.0000 C   0  0  0  0  0  0  0  0  0  0  0  0
   -1.8032   -3.3904    0.0000 C   0  0  0  0  0  0  0  0  0  0  0  0
   -1.8032   -2.5654    0.0000 C   0  0  0  0  0  0  0  0  0  0  0  0
   -1.0887   -2.1529    0.0000 C   0  0  0  0  0  0  0  0  0  0  0  0
   -2.5177   -3.8029    0.0000 C   0  0  0  0  0  0  0  0  0  0  0  0
   -2.5177   -4.6279    0.0000 C   0  0  0  0  0  0  0  0  0  0  0  0
   -3.2322   -5.0404    0.0000 C   0  0  0  0  0  0  0  0  0  0  0  0
   -3.9466   -4.6279    0.0000 C   0  0  0  0  0  0  0  0  0  0  0  0
   -3.9466   -3.8029    0.0000 C   0  0  0  0  0  0  0  0  0  0  0  0
   -3.2322   -3.3904    0.0000 C   0  0  0  0  0  0  0  0  0  0  0  0
   -0.3743   -0.9154    0.0000 C   0  0  0  0  0  0  0  0  0  0  0  0
   -1.0887   -1.3279    0.0000 C   0  0  0  0  0  0  0  0  0  0  0  0
   -1.8032   -0.9154    0.0000 C   0  0  0  0  0  0  0  0  0  0  0  0
   -1.8032   -0.0904    0.0000 C   0  0  0  0  0  0  0  0  0  0  0  0
   -1.0887    0.3221    0.0000 N   0  0  0  0  0  0  0  0  0  0  0  0
   -0.3743   -0.0904    0.0000 C   0  0  0  0  0  0  0  0  0  0  0  0
    4.0231    1.1471    0.0000 H   0  0  0  0  0  0  0  0  0  0  0  0
    3.1981    1.9721    0.0000 H   0  0  0  0  0  0  0  0  0  0  0  0
    2.3731    1.1471    0.0000 H   0  0  0  0  0  0  0  0  0  0  0  0
    1.7411    0.8524    0.0000 H   0  0  0  0  0  0  0  0  0  0  0  0
    1.5606    0.1788    0.0000 H   0  0  0  0  0  0  0  0  0  0  0  0
    2.7856   -0.3924    0.0000 H   0  0  0  0  0  0  0  0  0  0  0  0
    3.7074   -0.4401    0.0000 H   0  0  0  0  0  0  0  0  0  0  0  0
    4.6064   -0.2613    0.0000 H   0  0  0  0  0  0  0  0  0  0  0  0
    4.7853    0.6378    0.0000 H   0  0  0  0  0  0  0  0  0  0  0  0
    3.0882   -1.3206    0.0000 H   0  0  0  0  0  0  0  0  0  0  0  0
    3.7782   -1.0895    0.0000 H   0  0  0  0  0  0  0  0  0  0  0  0
    1.2469   -0.2371    0.0000 H   0  0  0  0  0  0  0  0  0  0  0  0
    1.4549   -0.7495    0.0000 H   0  0  0  0  0  0  0  0  0  0  0  0
    1.9398   -1.0154    0.0000 H   0  0  0  0  0  0  0  0  0  0  0  0
    2.0975   -1.8370    0.0000 H   0  0  0  0  0  0  0  0  0  0  0  0
    2.8829   -2.4548    0.0000 H   0  0  0  0  0  0  0  0  0  0  0  0
    3.6876   -1.8625    0.0000 H   0  0  0  0  0  0  0  0  0  0  0  0
    1.0547   -1.7404    0.0000 H   0  0  0  0  0  0  0  0  0  0  0  0
   -0.3743   -1.7404    0.0000 H   0  0  0  0  0  0  0  0  0  0  0  0
   -0.2650   -4.3805    0.0000 H   0  0  0  0  0  0  0  0  0  0  0  0
    0.5194   -5.4758    0.0000 H   0  0  0  0  0  0  0  0  0  0  0  0
    1.9521   -5.3274    0.0000 H   0  0  0  0  0  0  0  0  0  0  0  0
    0.3490   -2.9935    0.0000 H   0  0  0  0  0  0  0  0  0  0  0  0
   -1.0887   -4.6279    0.0000 H   0  0  0  0  0  0  0  0  0  0  0  0
   -2.5177   -2.1529    0.0000 H   0  0  0  0  0  0  0  0  0  0  0  0
   -1.0887   -2.9779    0.0000 H   0  0  0  0  0  0  0  0  0  0  0  0
   -1.8032   -5.0404    0.0000 H   0  0  0  0  0  0  0  0  0  0  0  0
   -3.2322   -5.8654    0.0000 H   0  0  0  0  0  0  0  0  0  0  0  0
   -4.6611   -5.0404    0.0000 H   0  0  0  0  0  0  0  0  0  0  0  0
   -4.6611   -3.3904    0.0000 H   0  0  0  0  0  0  0  0  0  0  0  0
   -3.2322   -2.5654    0.0000 H   0  0  0  0  0  0  0  0  0  0  0  0
   -1.8032   -1.7404    0.0000 H   0  0  0  0  0  0  0  0  0  0  0  0
   -2.6282   -0.9154    0.0000 H   0  0  0  0  0  0  0  0  0  0  0  0
   -2.5177    0.3221    0.0000 H   0  0  0  0  0  0  0  0  0  0  0  0
    0.3402    0.3221    0.0000 H   0  0  0  0  0  0  0  0  0  0  0  0
  1  2  1  0  0  0  0
  2  3  1  0  0  0  0
  2  4  1  0  0  0  0
  2  5  1  0  0  0  0
  5  6  1  0  0  0  0
  6  7  1  0  0  0  0
  6  8  1  0  0  0  0
  6  9  1  0  0  0  0
  9 10  1  0  0  0  0
 10 11  2  0  0  0  0
 10 12  1  0  0  0  0
 12 13  1  0  0  0  0
 13 14  1  0  0  0  0
 14 15  2  0  0  0  0
 14 16  1  0  0  0  0
 16 17  4  0  0  0  0
 17 18  4  0  0  0  0
 18 19  4  0  0  0  0
 19 20  4  0  0  0  0
 13 21  1  0  0  0  0
 21 22  4  0  0  0  0
 22 23  4  0  0  0  0
 23 24  4  0  0  0  0
 24 25  4  0  0  0  0
 25 26  4  0  0  0  0
 24 27  1  0  0  0  0
 27 28  4  0  0  0  0
 28 29  4  0  0  0  0
 29 30  4  0  0  0  0
 30 31  4  0  0  0  0
 31 32  4  0  0  0  0
 12 33  1  0  0  0  0
 33 34  4  0  0  0  0
 34 35  4  0  0  0  0
 35 36  4  0  0  0  0
 36 37  4  0  0  0  0
 37 38  4  0  0  0  0
 20 16  4  0  0  0  0
 26 21  4  0  0  0  0
 32 27  4  0  0  0  0
 38 33  4  0  0  0  0
  1 39  1  0  0  0  0
  1 40  1  0  0  0  0
  1 41  1  0  0  0  0
  3 42  1  0  0  0  0
  3 43  1  0  0  0  0
  3 44  1  0  0  0  0
  4 45  1  0  0  0  0
  4 46  1  0  0  0  0
  4 47  1  0  0  0  0
  5 48  1  0  0  0  0
  5 49  1  0  0  0  0
  7 50  1  0  0  0  0
  7 51  1  0  0  0  0
  7 52  1  0  0  0  0
  8 53  1  0  0  0  0
  8 54  1  0  0  0  0
  8 55  1  0  0  0  0
  9 56  1  0  0  0  0
 12 57  1  0  0  0  0
 17 58  1  0  0  0  0
 18 59  1  0  0  0  0
 19 60  1  0  0  0  0
 22 61  1  0  0  0  0
 23 62  1  0  0  0  0
 25 63  1  0  0  0  0
 26 64  1  0  0  0  0
 28 65  1  0  0  0  0
 29 66  1  0  0  0  0
 30 67  1  0  0  0  0
 31 68  1  0  0  0  0
 32 69  1  0  0  0  0
 34 70  1  0  0  0  0
 35 71  1  0  0  0  0
 36 72  1  0  0  0  0
 38 73  1  0  0  0  0
M  END
> <Compound>
31a

>  <SMILE>
CC(C)(C)CC(C)(C)NC(=O)C(N(C(=O)C1=CC=CO1)C1=CC=C(C=C1)C1=CC=CC=C1)C1=CC=CN=C1

> <Relation>
=

>  <IC50 (??M)>
2.14

> <Bond Type>
Non-covalent

> <References>
10.1101/2020.12.19.423537

> <Year>
2020

> <StandardizerResult>
Remove Explicit Hydrogens (ID: RemoveExplicitH)
Dearomatize (ID: Dearomatize)
Clear Stereo (ID: ClearStereo)
Wedge Clean (ID: WedgeClean)
Mesomerize (ID: Mesomerize)
Tautomerize (ID: Tautomerize)
Aromatize (ID: Aromatize)
Add Explicit Hydrogens (ID: AddExplicitH)
Neutralize (ID: Neutralize)
Clean 2D (ID: Clean2D)

> <Molecule (InChiKey)>
GODDDBMSKPRAAE-UHFFFAOYSA-N

> <Outcome>
Active

> <IC50 (uM)>
2.14

> <SMILES>
CC(C)(C)CC(C)(C)NC(=O)C(N(C(=O)C1=CC=CO1)C1=CC=C(C=C1)C1=CC=CC=C1)C1=CC=CN=C1

$$$$

  Mrv2016 04192109512D          

 57 61  0  0  0  0            999 V2000
   -0.1505    5.5808    0.0000 N   0  0  0  0  0  0  0  0  0  0  0  0
    0.5640    5.1683    0.0000 C   0  0  0  0  0  0  0  0  0  0  0  0
    1.2785    5.5808    0.0000 C   0  0  0  0  0  0  0  0  0  0  0  0
    1.2785    6.4058    0.0000 C   0  0  0  0  0  0  0  0  0  0  0  0
    1.9929    6.8183    0.0000 C   0  0  0  0  0  0  0  0  0  0  0  0
    2.7074    6.4058    0.0000 C   0  0  0  0  0  0  0  0  0  0  0  0
    2.7074    5.5808    0.0000 C   0  0  0  0  0  0  0  0  0  0  0  0
    1.9929    5.1683    0.0000 C   0  0  0  0  0  0  0  0  0  0  0  0
    1.9929    4.3433    0.0000 C   0  0  0  0  0  0  0  0  0  0  0  0
    2.7074    3.9308    0.0000 C   0  0  0  0  0  0  0  0  0  0  0  0
    2.7074    3.1058    0.0000 N   0  0  0  0  0  0  0  0  0  0  0  0
    1.9929    2.6933    0.0000 C   0  0  0  0  0  0  0  0  0  0  0  0
    1.9929    1.8683    0.0000 O   0  0  0  0  0  0  0  0  0  0  0  0
    1.2785    3.1058    0.0000 C   0  0  0  0  0  0  0  0  0  0  0  0
    1.2785    3.9308    0.0000 C   0  0  0  0  0  0  0  0  0  0  0  0
    0.5640    2.6933    0.0000 C   0  0  0  0  0  0  0  0  0  0  0  0
    0.5640    1.8683    0.0000 C   0  0  0  0  0  0  0  0  0  0  0  0
   -0.1505    1.4558    0.0000 C   0  0  0  0  0  0  0  0  0  0  0  0
   -0.1505    0.6308    0.0000 O   0  0  0  0  0  0  0  0  0  0  0  0
    0.5640    0.2183    0.0000 C   0  0  0  0  0  0  0  0  0  0  0  0
    0.5640   -0.6067    0.0000 C   0  0  0  0  0  0  0  0  0  0  0  0
    0.9765   -1.3212    0.0000 C   0  0  0  0  0  0  0  0  0  0  0  0
    0.1515   -1.3212    0.0000 C   0  0  0  0  0  0  0  0  0  0  0  0
   -0.8650    1.8683    0.0000 C   0  0  0  0  0  0  0  0  0  0  0  0
   -0.8650    2.6933    0.0000 C   0  0  0  0  0  0  0  0  0  0  0  0
   -1.5794    3.1058    0.0000 Cl  0  0  0  0  0  0  0  0  0  0  0  0
   -0.1505    3.1058    0.0000 C   0  0  0  0  0  0  0  0  0  0  0  0
    3.4219    2.6933    0.0000 C   0  0  0  0  0  0  0  0  0  0  0  0
    4.1363    3.1058    0.0000 C   0  0  0  0  0  0  0  0  0  0  0  0
    4.8508    2.6933    0.0000 N   0  0  0  0  0  0  0  0  0  0  0  0
    4.8508    1.8683    0.0000 C   0  0  0  0  0  0  0  0  0  0  0  0
    4.1363    1.4558    0.0000 C   0  0  0  0  0  0  0  0  0  0  0  0
    3.4219    1.8683    0.0000 C   0  0  0  0  0  0  0  0  0  0  0  0
   -0.1505    6.4058    0.0000 H   0  0  0  0  0  0  0  0  0  0  0  0
   -0.8650    5.1683    0.0000 H   0  0  0  0  0  0  0  0  0  0  0  0
    0.1937    4.4310    0.0000 H   0  0  0  0  0  0  0  0  0  0  0  0
    0.9342    4.4310    0.0000 H   0  0  0  0  0  0  0  0  0  0  0  0
    0.5640    6.8183    0.0000 H   0  0  0  0  0  0  0  0  0  0  0  0
    1.9929    7.6433    0.0000 H   0  0  0  0  0  0  0  0  0  0  0  0
    3.4219    6.8183    0.0000 H   0  0  0  0  0  0  0  0  0  0  0  0
    3.4219    5.1683    0.0000 H   0  0  0  0  0  0  0  0  0  0  0  0
    3.4219    4.3433    0.0000 H   0  0  0  0  0  0  0  0  0  0  0  0
    0.4906    3.6859    0.0000 H   0  0  0  0  0  0  0  0  0  0  0  0
    1.2785    1.4558    0.0000 H   0  0  0  0  0  0  0  0  0  0  0  0
    1.3876    0.2663    0.0000 H   0  0  0  0  0  0  0  0  0  0  0  0
    1.0173    0.9076    0.0000 H   0  0  0  0  0  0  0  0  0  0  0  0
   -0.2329   -0.3932    0.0000 H   0  0  0  0  0  0  0  0  0  0  0  0
    1.3467   -2.0584    0.0000 H   0  0  0  0  0  0  0  0  0  0  0  0
    1.8001   -1.2732    0.0000 H   0  0  0  0  0  0  0  0  0  0  0  0
   -0.6721   -1.2732    0.0000 H   0  0  0  0  0  0  0  0  0  0  0  0
   -0.2188   -2.0584    0.0000 H   0  0  0  0  0  0  0  0  0  0  0  0
   -1.5794    1.4558    0.0000 H   0  0  0  0  0  0  0  0  0  0  0  0
   -0.6362    3.7726    0.0000 H   0  0  0  0  0  0  0  0  0  0  0  0
    4.1363    3.9308    0.0000 H   0  0  0  0  0  0  0  0  0  0  0  0
    5.5653    1.4558    0.0000 H   0  0  0  0  0  0  0  0  0  0  0  0
    4.1363    0.6308    0.0000 H   0  0  0  0  0  0  0  0  0  0  0  0
    2.7074    1.4558    0.0000 H   0  0  0  0  0  0  0  0  0  0  0  0
  1  2  1  0  0  0  0
  2  3  1  0  0  0  0
  3  4  4  0  0  0  0
  4  5  4  0  0  0  0
  5  6  4  0  0  0  0
  6  7  4  0  0  0  0
  7  8  4  0  0  0  0
  8  9  1  0  0  0  0
  9 10  2  0  0  0  0
 10 11  1  0  0  0  0
 11 12  1  0  0  0  0
 12 13  2  0  0  0  0
 12 14  1  0  0  0  0
 14 15  2  0  0  0  0
 14 16  1  0  0  0  0
 16 17  4  0  0  0  0
 17 18  4  0  0  0  0
 18 19  1  0  0  0  0
 19 20  1  0  0  0  0
 20 21  1  0  0  0  0
 21 22  1  0  0  0  0
 22 23  1  0  0  0  0
 18 24  4  0  0  0  0
 24 25  4  0  0  0  0
 25 26  1  0  0  0  0
 25 27  4  0  0  0  0
 11 28  1  0  0  0  0
 28 29  4  0  0  0  0
 29 30  4  0  0  0  0
 30 31  4  0  0  0  0
 31 32  4  0  0  0  0
 32 33  4  0  0  0  0
  8  3  4  0  0  0  0
 15  9  1  0  0  0  0
 27 16  4  0  0  0  0
 33 28  4  0  0  0  0
 23 21  1  0  0  0  0
  1 34  1  0  0  0  0
  1 35  1  0  0  0  0
  2 36  1  0  0  0  0
  2 37  1  0  0  0  0
  4 38  1  0  0  0  0
  5 39  1  0  0  0  0
  6 40  1  0  0  0  0
  7 41  1  0  0  0  0
 10 42  1  0  0  0  0
 15 43  1  0  0  0  0
 17 44  1  0  0  0  0
 20 45  1  0  0  0  0
 20 46  1  0  0  0  0
 21 47  1  0  0  0  0
 22 48  1  0  0  0  0
 22 49  1  0  0  0  0
 23 50  1  0  0  0  0
 23 51  1  0  0  0  0
 24 52  1  0  0  0  0
 27 53  1  0  0  0  0
 29 54  1  0  0  0  0
 31 55  1  0  0  0  0
 32 56  1  0  0  0  0
 33 57  1  0  0  0  0
M  END
> <Compound>
26

>  <SMILE>
NCC1=CC=CC=C1C1=CN(C(=O)C(=C1)C1=CC(OCC2CC2)=CC(Cl)=C1)C1=CN=CC=C1

> <Relation>
=

>  <IC50 (??M)>
0.17

> <Bond Type>
Non-covalent

> <References>
https://doi.org/10.1021/acscentsci.1c00039

> <Year>
2020

> <StandardizerResult>
Remove Explicit Hydrogens (ID: RemoveExplicitH)
Dearomatize (ID: Dearomatize)
Clear Stereo (ID: ClearStereo)
Wedge Clean (ID: WedgeClean)
Mesomerize (ID: Mesomerize)
Tautomerize (ID: Tautomerize)
Aromatize (ID: Aromatize)
Add Explicit Hydrogens (ID: AddExplicitH)
Neutralize (ID: Neutralize)
Clean 2D (ID: Clean2D)

> <Molecule (InChiKey)>
HGDAADAYEPYOCS-UHFFFAOYSA-N

> <Outcome>
Active

> <IC50 (uM)>
0.17

> <SMILES>
NCC1=CC=CC=C1C1=CN(C(=O)C(=C1)C1=CC(OCC2CC2)=CC(Cl)=C1)C1=CN=CC=C1

$$$$

  Mrv2016 04192109512D          

 62 66  0  0  0  0            999 V2000
   -3.1422   -2.6949    0.0000 C   0  0  0  0  0  0  0  0  0  0  0  0
   -2.3172   -2.6949    0.0000 C   0  0  0  0  0  0  0  0  0  0  0  0
   -1.9047   -1.9804    0.0000 N   0  0  0  0  0  0  0  0  0  0  0  0
   -1.0797   -1.9804    0.0000 C   0  0  0  0  0  0  0  0  0  0  0  0
   -0.6672   -2.6949    0.0000 O   0  0  0  0  0  0  0  0  0  0  0  0
   -0.6672   -1.2659    0.0000 C   0  0  0  0  0  0  0  0  0  0  0  0
    0.1578   -1.2659    0.0000 N   0  0  0  0  0  0  0  0  0  0  0  0
    0.5703   -1.9804    0.0000 C   0  0  0  0  0  0  0  0  0  0  0  0
    0.1578   -2.6949    0.0000 O   0  0  0  0  0  0  0  0  0  0  0  0
    1.3953   -1.9804    0.0000 C   0  0  0  0  0  0  0  0  0  0  0  0
    1.8802   -2.6479    0.0000 C   0  0  0  0  0  0  0  0  0  0  0  0
    2.6648   -2.3929    0.0000 C   0  0  0  0  0  0  0  0  0  0  0  0
    2.6648   -1.5679    0.0000 C   0  0  0  0  0  0  0  0  0  0  0  0
    1.8802   -1.3130    0.0000 O   0  0  0  0  0  0  0  0  0  0  0  0
    0.5703   -0.5515    0.0000 C   0  0  0  0  0  0  0  0  0  0  0  0
    0.1578    0.1630    0.0000 C   0  0  0  0  0  0  0  0  0  0  0  0
    0.5703    0.8775    0.0000 C   0  0  0  0  0  0  0  0  0  0  0  0
    1.3953    0.8775    0.0000 C   0  0  0  0  0  0  0  0  0  0  0  0
    1.8078    0.1630    0.0000 C   0  0  0  0  0  0  0  0  0  0  0  0
    1.3953   -0.5515    0.0000 C   0  0  0  0  0  0  0  0  0  0  0  0
    1.8078    1.5919    0.0000 C   0  0  0  0  0  0  0  0  0  0  0  0
    1.4722    2.3456    0.0000 C   0  0  0  0  0  0  0  0  0  0  0  0
    2.0853    2.8976    0.0000 C   0  0  0  0  0  0  0  0  0  0  0  0
    2.7998    2.4851    0.0000 C   0  0  0  0  0  0  0  0  0  0  0  0
    2.6283    1.6782    0.0000 O   0  0  0  0  0  0  0  0  0  0  0  0
   -1.0797   -0.5515    0.0000 C   0  0  0  0  0  0  0  0  0  0  0  0
   -1.9047   -0.5515    0.0000 C   0  0  0  0  0  0  0  0  0  0  0  0
   -2.3172    0.1630    0.0000 C   0  0  0  0  0  0  0  0  0  0  0  0
   -1.9047    0.8775    0.0000 C   0  0  0  0  0  0  0  0  0  0  0  0
   -1.0797    0.8775    0.0000 N   0  0  0  0  0  0  0  0  0  0  0  0
   -0.6672    0.1630    0.0000 C   0  0  0  0  0  0  0  0  0  0  0  0
   -1.9047   -3.4094    0.0000 C   0  0  0  0  0  0  0  0  0  0  0  0
   -1.0797   -3.4094    0.0000 C   0  0  0  0  0  0  0  0  0  0  0  0
   -0.6672   -4.1238    0.0000 C   0  0  0  0  0  0  0  0  0  0  0  0
   -1.0797   -4.8383    0.0000 C   0  0  0  0  0  0  0  0  0  0  0  0
   -1.9047   -4.8383    0.0000 C   0  0  0  0  0  0  0  0  0  0  0  0
   -2.3172   -4.1238    0.0000 C   0  0  0  0  0  0  0  0  0  0  0  0
   -3.1422   -1.8699    0.0000 H   0  0  0  0  0  0  0  0  0  0  0  0
   -3.9672   -2.6949    0.0000 H   0  0  0  0  0  0  0  0  0  0  0  0
   -3.1422   -3.5199    0.0000 H   0  0  0  0  0  0  0  0  0  0  0  0
   -2.7297   -1.9804    0.0000 H   0  0  0  0  0  0  0  0  0  0  0  0
   -1.9047   -1.1554    0.0000 H   0  0  0  0  0  0  0  0  0  0  0  0
   -0.2547   -1.9804    0.0000 H   0  0  0  0  0  0  0  0  0  0  0  0
    1.6253   -3.4325    0.0000 H   0  0  0  0  0  0  0  0  0  0  0  0
    3.3323   -2.8778    0.0000 H   0  0  0  0  0  0  0  0  0  0  0  0
    3.3323   -1.0830    0.0000 H   0  0  0  0  0  0  0  0  0  0  0  0
   -0.2547   -0.5515    0.0000 H   0  0  0  0  0  0  0  0  0  0  0  0
    0.1578    1.5919    0.0000 H   0  0  0  0  0  0  0  0  0  0  0  0
    2.6328    0.1630    0.0000 H   0  0  0  0  0  0  0  0  0  0  0  0
    0.9984   -1.2747    0.0000 H   0  0  0  0  0  0  0  0  0  0  0  0
    0.6653    2.5171    0.0000 H   0  0  0  0  0  0  0  0  0  0  0  0
    1.9991    3.7181    0.0000 H   0  0  0  0  0  0  0  0  0  0  0  0
    3.5535    2.8207    0.0000 H   0  0  0  0  0  0  0  0  0  0  0  0
   -2.7016   -0.7650    0.0000 H   0  0  0  0  0  0  0  0  0  0  0  0
   -3.1422    0.1630    0.0000 H   0  0  0  0  0  0  0  0  0  0  0  0
   -2.3172    1.5919    0.0000 H   0  0  0  0  0  0  0  0  0  0  0  0
   -1.4922    0.1630    0.0000 H   0  0  0  0  0  0  0  0  0  0  0  0
   -1.4922   -2.6949    0.0000 H   0  0  0  0  0  0  0  0  0  0  0  0
    0.1578   -4.1238    0.0000 H   0  0  0  0  0  0  0  0  0  0  0  0
   -0.6672   -5.5528    0.0000 H   0  0  0  0  0  0  0  0  0  0  0  0
   -2.3172   -5.5528    0.0000 H   0  0  0  0  0  0  0  0  0  0  0  0
   -3.1422   -4.1238    0.0000 H   0  0  0  0  0  0  0  0  0  0  0  0
  2  1  1  0  0  0  0
  2  3  1  0  0  0  0
  3  4  1  0  0  0  0
  4  5  2  0  0  0  0
  4  6  1  0  0  0  0
  6  7  1  0  0  0  0
  7  8  1  0  0  0  0
  8  9  2  0  0  0  0
  8 10  1  0  0  0  0
 10 11  4  0  0  0  0
 11 12  4  0  0  0  0
 12 13  4  0  0  0  0
 13 14  4  0  0  0  0
  7 15  1  0  0  0  0
 15 16  4  0  0  0  0
 16 17  4  0  0  0  0
 17 18  4  0  0  0  0
 18 19  4  0  0  0  0
 19 20  4  0  0  0  0
 18 21  1  0  0  0  0
 21 22  4  0  0  0  0
 22 23  4  0  0  0  0
 23 24  4  0  0  0  0
 24 25  4  0  0  0  0
  6 26  1  0  0  0  0
 26 27  4  0  0  0  0
 27 28  4  0  0  0  0
 28 29  4  0  0  0  0
 29 30  4  0  0  0  0
 30 31  4  0  0  0  0
  2 32  1  0  0  0  0
 32 33  4  0  0  0  0
 33 34  4  0  0  0  0
 34 35  4  0  0  0  0
 35 36  4  0  0  0  0
 36 37  4  0  0  0  0
 14 10  4  0  0  0  0
 20 15  4  0  0  0  0
 25 21  4  0  0  0  0
 31 26  4  0  0  0  0
 37 32  4  0  0  0  0
  1 38  1  0  0  0  0
  1 39  1  0  0  0  0
  1 40  1  0  0  0  0
  2 41  1  0  0  0  0
  3 42  1  0  0  0  0
  6 43  1  0  0  0  0
 11 44  1  0  0  0  0
 12 45  1  0  0  0  0
 13 46  1  0  0  0  0
 16 47  1  0  0  0  0
 17 48  1  0  0  0  0
 19 49  1  0  0  0  0
 20 50  1  0  0  0  0
 22 51  1  0  0  0  0
 23 52  1  0  0  0  0
 24 53  1  0  0  0  0
 27 54  1  0  0  0  0
 28 55  1  0  0  0  0
 29 56  1  0  0  0  0
 31 57  1  0  0  0  0
 33 58  1  0  0  0  0
 34 59  1  0  0  0  0
 35 60  1  0  0  0  0
 36 61  1  0  0  0  0
 37 62  1  0  0  0  0
M  END
> <Compound>
18a

>  <SMILE>
C[C@H](NC(=O)C(N(C(=O)C1=CC=CO1)C1=CC=C(C=C1)C1=CC=CO1)C1=CC=CN=C1)C1=CC=CC=C1

> <Relation>
=

>  <IC50 (??M)>
2.54

> <Bond Type>
Non-covalent

> <References>
10.1101/2020.12.19.423537

> <Year>
2020

> <StandardizerResult>
Remove Explicit Hydrogens (ID: RemoveExplicitH)
Dearomatize (ID: Dearomatize)
Clear Stereo (ID: ClearStereo)
Wedge Clean (ID: WedgeClean)
Mesomerize (ID: Mesomerize)
Tautomerize (ID: Tautomerize)
Aromatize (ID: Aromatize)
Add Explicit Hydrogens (ID: AddExplicitH)
Neutralize (ID: Neutralize)
Clean 2D (ID: Clean2D)

> <Molecule (InChiKey)>
IJUSQHGCLSCLBK-UHFFFAOYSA-N

> <Outcome>
Active

> <IC50 (uM)>
2.54

> <SMILES>
C[C@H](NC(=O)C(N(C(=O)C1=CC=CO1)C1=CC=C(C=C1)C1=CC=CO1)C1=CC=CN=C1)C1=CC=CC=C1

$$$$

  Mrv2016 04192109512D          

 55 59  0  0  0  0            999 V2000
   -1.9030    2.0949    0.0000 Cl  0  0  0  0  0  0  0  0  0  0  0  0
   -1.9030    1.2699    0.0000 C   0  0  0  0  0  0  0  0  0  0  0  0
   -1.1885    0.8574    0.0000 C   0  0  0  0  0  0  0  0  0  0  0  0
   -1.1885    0.0324    0.0000 C   0  0  0  0  0  0  0  0  0  0  0  0
   -1.9030   -0.3801    0.0000 C   0  0  0  0  0  0  0  0  0  0  0  0
   -2.6175    0.0324    0.0000 C   0  0  0  0  0  0  0  0  0  0  0  0
   -3.3319   -0.3801    0.0000 O   0  0  0  0  0  0  0  0  0  0  0  0
   -4.0464    0.0324    0.0000 C   0  0  0  0  0  0  0  0  0  0  0  0
   -4.7609   -0.3801    0.0000 C   0  0  0  0  0  0  0  0  0  0  0  0
   -4.7609   -1.2051    0.0000 C   0  0  0  0  0  0  0  0  0  0  0  0
   -5.4753   -1.6176    0.0000 C   0  0  0  0  0  0  0  0  0  0  0  0
   -6.1898   -1.2051    0.0000 C   0  0  0  0  0  0  0  0  0  0  0  0
   -6.1898   -0.3801    0.0000 C   0  0  0  0  0  0  0  0  0  0  0  0
   -5.4753    0.0324    0.0000 C   0  0  0  0  0  0  0  0  0  0  0  0
   -2.6175    0.8574    0.0000 C   0  0  0  0  0  0  0  0  0  0  0  0
   -0.4740   -0.3801    0.0000 C   0  0  0  0  0  0  0  0  0  0  0  0
    0.2404    0.0324    0.0000 C   0  0  0  0  0  0  0  0  0  0  0  0
    0.9549   -0.3801    0.0000 C   0  0  0  0  0  0  0  0  0  0  0  0
    0.9549   -1.2051    0.0000 C   0  0  0  0  0  0  0  0  0  0  0  0
    0.2404   -1.6176    0.0000 N   0  0  0  0  0  0  0  0  0  0  0  0
   -0.4740   -1.2051    0.0000 C   0  0  0  0  0  0  0  0  0  0  0  0
   -1.1885   -1.6176    0.0000 O   0  0  0  0  0  0  0  0  0  0  0  0
    0.2404   -2.4426    0.0000 C   0  0  0  0  0  0  0  0  0  0  0  0
    0.9549   -2.8551    0.0000 C   0  0  0  0  0  0  0  0  0  0  0  0
    0.9549   -3.6801    0.0000 N   0  0  0  0  0  0  0  0  0  0  0  0
    0.2404   -4.0926    0.0000 C   0  0  0  0  0  0  0  0  0  0  0  0
   -0.4740   -3.6801    0.0000 C   0  0  0  0  0  0  0  0  0  0  0  0
   -0.4740   -2.8551    0.0000 C   0  0  0  0  0  0  0  0  0  0  0  0
    1.6694    0.0324    0.0000 C   0  0  0  0  0  0  0  0  0  0  0  0
    1.6694    0.8574    0.0000 C   0  0  0  0  0  0  0  0  0  0  0  0
    2.3838    1.2699    0.0000 N   0  0  0  0  0  0  0  0  0  0  0  0
    3.0983    0.8574    0.0000 C   0  0  0  0  0  0  0  0  0  0  0  0
    3.8128    1.2699    0.0000 O   0  0  0  0  0  0  0  0  0  0  0  0
    3.0983    0.0324    0.0000 N   0  0  0  0  0  0  0  0  0  0  0  0
    2.3838   -0.3801    0.0000 C   0  0  0  0  0  0  0  0  0  0  0  0
    2.3838   -1.2051    0.0000 O   0  0  0  0  0  0  0  0  0  0  0  0
   -0.4740    1.2699    0.0000 H   0  0  0  0  0  0  0  0  0  0  0  0
   -1.9030   -1.2051    0.0000 H   0  0  0  0  0  0  0  0  0  0  0  0
   -3.6761    0.7696    0.0000 H   0  0  0  0  0  0  0  0  0  0  0  0
   -4.4167    0.7696    0.0000 H   0  0  0  0  0  0  0  0  0  0  0  0
   -4.0464   -1.6176    0.0000 H   0  0  0  0  0  0  0  0  0  0  0  0
   -5.4753   -2.4426    0.0000 H   0  0  0  0  0  0  0  0  0  0  0  0
   -6.9043   -1.6176    0.0000 H   0  0  0  0  0  0  0  0  0  0  0  0
   -6.9043    0.0324    0.0000 H   0  0  0  0  0  0  0  0  0  0  0  0
   -5.4753    0.8574    0.0000 H   0  0  0  0  0  0  0  0  0  0  0  0
   -3.3319    1.2699    0.0000 H   0  0  0  0  0  0  0  0  0  0  0  0
    0.2404    0.8574    0.0000 H   0  0  0  0  0  0  0  0  0  0  0  0
    1.6694   -1.6176    0.0000 H   0  0  0  0  0  0  0  0  0  0  0  0
    1.6694   -2.4426    0.0000 H   0  0  0  0  0  0  0  0  0  0  0  0
    0.2404   -4.9176    0.0000 H   0  0  0  0  0  0  0  0  0  0  0  0
   -1.1885   -4.0926    0.0000 H   0  0  0  0  0  0  0  0  0  0  0  0
   -1.1885   -2.4426    0.0000 H   0  0  0  0  0  0  0  0  0  0  0  0
    0.9549    1.2699    0.0000 H   0  0  0  0  0  0  0  0  0  0  0  0
    2.3838    2.0949    0.0000 H   0  0  0  0  0  0  0  0  0  0  0  0
    3.8128   -0.3801    0.0000 H   0  0  0  0  0  0  0  0  0  0  0  0
  1  2  1  0  0  0  0
  2  3  4  0  0  0  0
  3  4  4  0  0  0  0
  4  5  4  0  0  0  0
  5  6  4  0  0  0  0
  6  7  1  0  0  0  0
  7  8  1  0  0  0  0
  8  9  1  0  0  0  0
  9 10  4  0  0  0  0
 10 11  4  0  0  0  0
 11 12  4  0  0  0  0
 12 13  4  0  0  0  0
 13 14  4  0  0  0  0
  6 15  4  0  0  0  0
  4 16  1  0  0  0  0
 16 17  2  0  0  0  0
 17 18  1  0  0  0  0
 18 19  2  0  0  0  0
 19 20  1  0  0  0  0
 20 21  1  0  0  0  0
 21 22  2  0  0  0  0
 20 23  1  0  0  0  0
 23 24  4  0  0  0  0
 24 25  4  0  0  0  0
 25 26  4  0  0  0  0
 26 27  4  0  0  0  0
 27 28  4  0  0  0  0
 18 29  1  0  0  0  0
 29 30  2  0  0  0  0
 30 31  1  0  0  0  0
 31 32  1  0  0  0  0
 32 33  2  0  0  0  0
 32 34  1  0  0  0  0
 34 35  1  0  0  0  0
 35 36  2  0  0  0  0
 15  2  4  0  0  0  0
 21 16  1  0  0  0  0
 28 23  4  0  0  0  0
 35 29  1  0  0  0  0
 14  9  4  0  0  0  0
  3 37  1  0  0  0  0
  5 38  1  0  0  0  0
  8 39  1  0  0  0  0
  8 40  1  0  0  0  0
 10 41  1  0  0  0  0
 11 42  1  0  0  0  0
 12 43  1  0  0  0  0
 13 44  1  0  0  0  0
 14 45  1  0  0  0  0
 15 46  1  0  0  0  0
 17 47  1  0  0  0  0
 19 48  1  0  0  0  0
 24 49  1  0  0  0  0
 26 50  1  0  0  0  0
 27 51  1  0  0  0  0
 28 52  1  0  0  0  0
 30 53  1  0  0  0  0
 31 54  1  0  0  0  0
 34 55  1  0  0  0  0
M  END
> <Compound>
14

>  <SMILE>
ClC1=CC(=CC(OCC2=CC=CC=C2)=C1)C1=CC(=CN(C1=O)C1=CN=CC=C1)C1=CNC(=O)NC1=O

> <Relation>
=

>  <IC50 (??M)>
0.128

> <Bond Type>
Non-covalent

> <References>
https://doi.org/10.1021/acscentsci.1c00039

> <Year>
2020

> <StandardizerResult>
Remove Explicit Hydrogens (ID: RemoveExplicitH)
Dearomatize (ID: Dearomatize)
Clear Stereo (ID: ClearStereo)
Wedge Clean (ID: WedgeClean)
Mesomerize (ID: Mesomerize)
Tautomerize (ID: Tautomerize)
Aromatize (ID: Aromatize)
Add Explicit Hydrogens (ID: AddExplicitH)
Neutralize (ID: Neutralize)
Clean 2D (ID: Clean2D)

> <Molecule (InChiKey)>
IVPUTCRGJCQUQU-UHFFFAOYSA-N

> <Outcome>
Active

> <IC50 (uM)>
0.128

> <SMILES>
ClC1=CC(=CC(OCC2=CC=CC=C2)=C1)C1=CC(=CN(C1=O)C1=CN=CC=C1)C1=CNC(=O)NC1=O

$$$$

  Mrv2016 04192109512D          

 65 68  0  0  0  0            999 V2000
   -6.1688    3.0442    0.0000 C   0  0  0  0  0  0  0  0  0  0  0  0
   -5.3438    3.0442    0.0000 O   0  0  0  0  0  0  0  0  0  0  0  0
   -4.9313    2.3297    0.0000 C   0  0  0  0  0  0  0  0  0  0  0  0
   -4.1063    2.3297    0.0000 C   0  0  0  0  0  0  0  0  0  0  0  0
   -3.6938    1.6153    0.0000 C   0  0  0  0  0  0  0  0  0  0  0  0
   -4.1063    0.9008    0.0000 C   0  0  0  0  0  0  0  0  0  0  0  0
   -3.6938    0.1863    0.0000 N   0  0  0  0  0  0  0  0  0  0  0  0
   -2.8688    0.1863    0.0000 C   0  0  0  0  0  0  0  0  0  0  0  0
   -2.4563    0.9008    0.0000 O   0  0  0  0  0  0  0  0  0  0  0  0
   -2.4563   -0.5282    0.0000 C   0  0  0  0  0  0  0  0  0  0  0  0
   -1.6313   -0.5282    0.0000 N   0  0  0  0  0  0  0  0  0  0  0  0
   -1.2188    0.1863    0.0000 C   0  0  0  0  0  0  0  0  0  0  0  0
   -1.6313    0.9008    0.0000 O   0  0  0  0  0  0  0  0  0  0  0  0
   -0.3938    0.1863    0.0000 C   0  0  0  0  0  0  0  0  0  0  0  0
    0.0911    0.8538    0.0000 C   0  0  0  0  0  0  0  0  0  0  0  0
    0.8757    0.5988    0.0000 C   0  0  0  0  0  0  0  0  0  0  0  0
    0.8757   -0.2262    0.0000 C   0  0  0  0  0  0  0  0  0  0  0  0
    0.0911   -0.4811    0.0000 O   0  0  0  0  0  0  0  0  0  0  0  0
   -1.2188   -1.2426    0.0000 C   0  0  0  0  0  0  0  0  0  0  0  0
   -0.3938   -1.2426    0.0000 C   0  0  0  0  0  0  0  0  0  0  0  0
    0.0187   -1.9571    0.0000 C   0  0  0  0  0  0  0  0  0  0  0  0
   -0.3938   -2.6716    0.0000 C   0  0  0  0  0  0  0  0  0  0  0  0
   -1.2188   -2.6716    0.0000 C   0  0  0  0  0  0  0  0  0  0  0  0
   -1.6313   -1.9571    0.0000 C   0  0  0  0  0  0  0  0  0  0  0  0
    0.0187   -3.3860    0.0000 C   0  0  0  0  0  0  0  0  0  0  0  0
    0.4312   -4.1005    0.0000 C   0  0  0  0  0  0  0  0  0  0  0  0
   -0.6958   -3.7985    0.0000 C   0  0  0  0  0  0  0  0  0  0  0  0
    0.7331   -2.9735    0.0000 C   0  0  0  0  0  0  0  0  0  0  0  0
   -2.8688   -1.2426    0.0000 C   0  0  0  0  0  0  0  0  0  0  0  0
   -2.4563   -1.9571    0.0000 C   0  0  0  0  0  0  0  0  0  0  0  0
   -2.8688   -2.6716    0.0000 N   0  0  0  0  0  0  0  0  0  0  0  0
   -3.6938   -2.6716    0.0000 C   0  0  0  0  0  0  0  0  0  0  0  0
   -4.1063   -1.9571    0.0000 C   0  0  0  0  0  0  0  0  0  0  0  0
   -3.6938   -1.2426    0.0000 C   0  0  0  0  0  0  0  0  0  0  0  0
   -4.9313    0.9008    0.0000 C   0  0  0  0  0  0  0  0  0  0  0  0
   -5.3438    1.6153    0.0000 C   0  0  0  0  0  0  0  0  0  0  0  0
   -6.1688    3.8692    0.0000 H   0  0  0  0  0  0  0  0  0  0  0  0
   -6.9938    3.0442    0.0000 H   0  0  0  0  0  0  0  0  0  0  0  0
   -6.1688    2.2192    0.0000 H   0  0  0  0  0  0  0  0  0  0  0  0
   -3.6938    3.0442    0.0000 H   0  0  0  0  0  0  0  0  0  0  0  0
   -2.8688    1.6153    0.0000 H   0  0  0  0  0  0  0  0  0  0  0  0
   -4.1063   -0.5282    0.0000 H   0  0  0  0  0  0  0  0  0  0  0  0
   -2.0438    0.1863    0.0000 H   0  0  0  0  0  0  0  0  0  0  0  0
   -0.1639    1.6384    0.0000 H   0  0  0  0  0  0  0  0  0  0  0  0
    1.5431    1.0837    0.0000 H   0  0  0  0  0  0  0  0  0  0  0  0
    1.5431   -0.7111    0.0000 H   0  0  0  0  0  0  0  0  0  0  0  0
   -0.7907   -0.5194    0.0000 H   0  0  0  0  0  0  0  0  0  0  0  0
    0.8437   -1.9571    0.0000 H   0  0  0  0  0  0  0  0  0  0  0  0
   -1.6313   -3.3860    0.0000 H   0  0  0  0  0  0  0  0  0  0  0  0
   -2.0438   -1.2426    0.0000 H   0  0  0  0  0  0  0  0  0  0  0  0
   -0.2833   -4.5130    0.0000 H   0  0  0  0  0  0  0  0  0  0  0  0
    0.8437   -4.8150    0.0000 H   0  0  0  0  0  0  0  0  0  0  0  0
    1.1456   -3.6880    0.0000 H   0  0  0  0  0  0  0  0  0  0  0  0
   -0.8035   -2.9806    0.0000 H   0  0  0  0  0  0  0  0  0  0  0  0
   -1.4927   -3.5850    0.0000 H   0  0  0  0  0  0  0  0  0  0  0  0
   -1.1980   -4.4531    0.0000 H   0  0  0  0  0  0  0  0  0  0  0  0
    1.5511   -2.8659    0.0000 H   0  0  0  0  0  0  0  0  0  0  0  0
    0.9467   -2.1766    0.0000 H   0  0  0  0  0  0  0  0  0  0  0  0
    0.0786   -2.4713    0.0000 H   0  0  0  0  0  0  0  0  0  0  0  0
   -2.0438   -2.6716    0.0000 H   0  0  0  0  0  0  0  0  0  0  0  0
   -4.1063   -3.3860    0.0000 H   0  0  0  0  0  0  0  0  0  0  0  0
   -4.9313   -1.9571    0.0000 H   0  0  0  0  0  0  0  0  0  0  0  0
   -3.2813   -0.5282    0.0000 H   0  0  0  0  0  0  0  0  0  0  0  0
   -5.3438    0.1863    0.0000 H   0  0  0  0  0  0  0  0  0  0  0  0
   -6.1688    1.6153    0.0000 H   0  0  0  0  0  0  0  0  0  0  0  0
  1  2  1  0  0  0  0
  2  3  1  0  0  0  0
  3  4  4  0  0  0  0
  4  5  4  0  0  0  0
  5  6  4  0  0  0  0
  6  7  1  0  0  0  0
  7  8  1  0  0  0  0
  8  9  2  0  0  0  0
  8 10  1  0  0  0  0
 10 11  1  0  0  0  0
 11 12  1  0  0  0  0
 12 13  2  0  0  0  0
 12 14  1  0  0  0  0
 14 15  4  0  0  0  0
 15 16  4  0  0  0  0
 16 17  4  0  0  0  0
 17 18  4  0  0  0  0
 11 19  1  0  0  0  0
 19 20  4  0  0  0  0
 20 21  4  0  0  0  0
 21 22  4  0  0  0  0
 22 23  4  0  0  0  0
 23 24  4  0  0  0  0
 22 25  1  0  0  0  0
 25 26  1  0  0  0  0
 25 27  1  0  0  0  0
 25 28  1  0  0  0  0
 10 29  1  0  0  0  0
 29 30  4  0  0  0  0
 30 31  4  0  0  0  0
 31 32  4  0  0  0  0
 32 33  4  0  0  0  0
 33 34  4  0  0  0  0
  6 35  4  0  0  0  0
 35 36  4  0  0  0  0
 36  3  4  0  0  0  0
 18 14  4  0  0  0  0
 24 19  4  0  0  0  0
 34 29  4  0  0  0  0
  1 37  1  0  0  0  0
  1 38  1  0  0  0  0
  1 39  1  0  0  0  0
  4 40  1  0  0  0  0
  5 41  1  0  0  0  0
  7 42  1  0  0  0  0
 10 43  1  0  0  0  0
 15 44  1  0  0  0  0
 16 45  1  0  0  0  0
 17 46  1  0  0  0  0
 20 47  1  0  0  0  0
 21 48  1  0  0  0  0
 23 49  1  0  0  0  0
 24 50  1  0  0  0  0
 26 51  1  0  0  0  0
 26 52  1  0  0  0  0
 26 53  1  0  0  0  0
 27 54  1  0  0  0  0
 27 55  1  0  0  0  0
 27 56  1  0  0  0  0
 28 57  1  0  0  0  0
 28 58  1  0  0  0  0
 28 59  1  0  0  0  0
 30 60  1  0  0  0  0
 32 61  1  0  0  0  0
 33 62  1  0  0  0  0
 34 63  1  0  0  0  0
 35 64  1  0  0  0  0
 36 65  1  0  0  0  0
M  END
> <Compound>
8a

>  <SMILE>
COC1=CC=C(NC(=O)C(N(C(=O)C2=CC=CO2)C2=CC=C(C=C2)C(C)(C)C)C2=CN=CC=C2)C=C1

> <Relation>
=

>  <IC50 (??M)>
7.49

> <Bond Type>
Non-covalent

> <References>
10.1101/2020.12.19.423537

> <Year>
2020

> <StandardizerResult>
Remove Explicit Hydrogens (ID: RemoveExplicitH)
Dearomatize (ID: Dearomatize)
Clear Stereo (ID: ClearStereo)
Wedge Clean (ID: WedgeClean)
Mesomerize (ID: Mesomerize)
Tautomerize (ID: Tautomerize)
Aromatize (ID: Aromatize)
Add Explicit Hydrogens (ID: AddExplicitH)
Neutralize (ID: Neutralize)
Clean 2D (ID: Clean2D)

> <Molecule (InChiKey)>
JGOVLTVDNDLBEO-UHFFFAOYSA-N

> <Outcome>
Active

> <IC50 (uM)>
7.49

> <SMILES>
COC1=CC=C(NC(=O)C(N(C(=O)C2=CC=CO2)C2=CC=C(C=C2)C(C)(C)C)C2=CN=CC=C2)C=C1

$$$$

  Mrv2016 04192109512D          

 55 59  0  0  0  0            999 V2000
   -1.5153   -1.2211    0.0000 F   0  0  0  0  0  0  0  0  0  0  0  0
   -1.5153   -2.0461    0.0000 C   0  0  0  0  0  0  0  0  0  0  0  0
   -0.8008   -2.4586    0.0000 C   0  0  0  0  0  0  0  0  0  0  0  0
   -0.0864   -2.0461    0.0000 C   0  0  0  0  0  0  0  0  0  0  0  0
    0.6281   -2.4586    0.0000 O   0  0  0  0  0  0  0  0  0  0  0  0
    1.3426   -2.0461    0.0000 C   0  0  0  0  0  0  0  0  0  0  0  0
    1.3426   -1.2211    0.0000 C   0  0  0  0  0  0  0  0  0  0  0  0
    2.0570   -0.8086    0.0000 C   0  0  0  0  0  0  0  0  0  0  0  0
    2.0570    0.0164    0.0000 Cl  0  0  0  0  0  0  0  0  0  0  0  0
    2.7715   -1.2211    0.0000 C   0  0  0  0  0  0  0  0  0  0  0  0
    2.7715   -2.0461    0.0000 C   0  0  0  0  0  0  0  0  0  0  0  0
    2.0570   -2.4586    0.0000 C   0  0  0  0  0  0  0  0  0  0  0  0
    3.4860   -2.4586    0.0000 C   0  0  0  0  0  0  0  0  0  0  0  0
    4.2005   -2.0461    0.0000 C   0  0  0  0  0  0  0  0  0  0  0  0
    4.9149   -2.4586    0.0000 C   0  0  0  0  0  0  0  0  0  0  0  0
    4.9149   -3.2836    0.0000 C   0  0  0  0  0  0  0  0  0  0  0  0
    4.2005   -3.6961    0.0000 N   0  0  0  0  0  0  0  0  0  0  0  0
    3.4860   -3.2836    0.0000 C   0  0  0  0  0  0  0  0  0  0  0  0
    2.7715   -3.6961    0.0000 O   0  0  0  0  0  0  0  0  0  0  0  0
    4.2005   -4.5211    0.0000 C   0  0  0  0  0  0  0  0  0  0  0  0
    4.9149   -4.9336    0.0000 C   0  0  0  0  0  0  0  0  0  0  0  0
    4.9149   -5.7586    0.0000 N   0  0  0  0  0  0  0  0  0  0  0  0
    4.2005   -6.1711    0.0000 C   0  0  0  0  0  0  0  0  0  0  0  0
    3.4860   -5.7586    0.0000 C   0  0  0  0  0  0  0  0  0  0  0  0
    3.4860   -4.9336    0.0000 C   0  0  0  0  0  0  0  0  0  0  0  0
    5.6294   -2.0461    0.0000 C   0  0  0  0  0  0  0  0  0  0  0  0
    5.6294   -1.2211    0.0000 C   0  0  0  0  0  0  0  0  0  0  0  0
    6.3439   -0.8086    0.0000 N   0  0  0  0  0  0  0  0  0  0  0  0
    7.0583   -1.2211    0.0000 C   0  0  0  0  0  0  0  0  0  0  0  0
    7.7728   -0.8086    0.0000 O   0  0  0  0  0  0  0  0  0  0  0  0
    7.0583   -2.0461    0.0000 N   0  0  0  0  0  0  0  0  0  0  0  0
    6.3439   -2.4586    0.0000 C   0  0  0  0  0  0  0  0  0  0  0  0
    6.3439   -3.2836    0.0000 O   0  0  0  0  0  0  0  0  0  0  0  0
   -0.8008   -3.2836    0.0000 C   0  0  0  0  0  0  0  0  0  0  0  0
   -1.5153   -3.6961    0.0000 C   0  0  0  0  0  0  0  0  0  0  0  0
   -2.2298   -3.2836    0.0000 C   0  0  0  0  0  0  0  0  0  0  0  0
   -2.2298   -2.4586    0.0000 C   0  0  0  0  0  0  0  0  0  0  0  0
    0.2839   -1.3089    0.0000 H   0  0  0  0  0  0  0  0  0  0  0  0
   -0.4566   -1.3089    0.0000 H   0  0  0  0  0  0  0  0  0  0  0  0
    0.6281   -0.8086    0.0000 H   0  0  0  0  0  0  0  0  0  0  0  0
    3.4860   -0.8086    0.0000 H   0  0  0  0  0  0  0  0  0  0  0  0
    2.0570   -3.2836    0.0000 H   0  0  0  0  0  0  0  0  0  0  0  0
    4.2005   -1.2211    0.0000 H   0  0  0  0  0  0  0  0  0  0  0  0
    5.6294   -3.6961    0.0000 H   0  0  0  0  0  0  0  0  0  0  0  0
    5.6294   -4.5211    0.0000 H   0  0  0  0  0  0  0  0  0  0  0  0
    4.2005   -6.9961    0.0000 H   0  0  0  0  0  0  0  0  0  0  0  0
    2.7715   -6.1711    0.0000 H   0  0  0  0  0  0  0  0  0  0  0  0
    2.7715   -4.5211    0.0000 H   0  0  0  0  0  0  0  0  0  0  0  0
    4.9149   -0.8086    0.0000 H   0  0  0  0  0  0  0  0  0  0  0  0
    6.3439    0.0164    0.0000 H   0  0  0  0  0  0  0  0  0  0  0  0
    7.7728   -2.4586    0.0000 H   0  0  0  0  0  0  0  0  0  0  0  0
   -0.0864   -3.6961    0.0000 H   0  0  0  0  0  0  0  0  0  0  0  0
   -1.5153   -4.5211    0.0000 H   0  0  0  0  0  0  0  0  0  0  0  0
   -2.9443   -3.6961    0.0000 H   0  0  0  0  0  0  0  0  0  0  0  0
   -2.9443   -2.0461    0.0000 H   0  0  0  0  0  0  0  0  0  0  0  0
  1  2  1  0  0  0  0
  2  3  4  0  0  0  0
  3  4  1  0  0  0  0
  4  5  1  0  0  0  0
  5  6  1  0  0  0  0
  6  7  4  0  0  0  0
  7  8  4  0  0  0  0
  8  9  1  0  0  0  0
  8 10  4  0  0  0  0
 10 11  4  0  0  0  0
 11 12  4  0  0  0  0
 11 13  1  0  0  0  0
 13 14  2  0  0  0  0
 14 15  1  0  0  0  0
 15 16  2  0  0  0  0
 16 17  1  0  0  0  0
 17 18  1  0  0  0  0
 18 19  2  0  0  0  0
 17 20  1  0  0  0  0
 20 21  4  0  0  0  0
 21 22  4  0  0  0  0
 22 23  4  0  0  0  0
 23 24  4  0  0  0  0
 24 25  4  0  0  0  0
 15 26  1  0  0  0  0
 26 27  2  0  0  0  0
 27 28  1  0  0  0  0
 28 29  1  0  0  0  0
 29 30  2  0  0  0  0
 29 31  1  0  0  0  0
 31 32  1  0  0  0  0
 32 33  2  0  0  0  0
  3 34  4  0  0  0  0
 34 35  4  0  0  0  0
 35 36  4  0  0  0  0
 36 37  4  0  0  0  0
 37  2  4  0  0  0  0
 12  6  4  0  0  0  0
 18 13  1  0  0  0  0
 25 20  4  0  0  0  0
 32 26  1  0  0  0  0
  4 38  1  0  0  0  0
  4 39  1  0  0  0  0
  7 40  1  0  0  0  0
 10 41  1  0  0  0  0
 12 42  1  0  0  0  0
 14 43  1  0  0  0  0
 16 44  1  0  0  0  0
 21 45  1  0  0  0  0
 23 46  1  0  0  0  0
 24 47  1  0  0  0  0
 25 48  1  0  0  0  0
 27 49  1  0  0  0  0
 28 50  1  0  0  0  0
 31 51  1  0  0  0  0
 34 52  1  0  0  0  0
 35 53  1  0  0  0  0
 36 54  1  0  0  0  0
 37 55  1  0  0  0  0
M  END
> <Compound>
18

>  <SMILE>
FC1=C(COC2=CC(Cl)=CC(=C2)C2=CC(=CN(C2=O)C2=CN=CC=C2)C2=CNC(=O)NC2=O)C=CC=C1

> <Relation>
=

>  <IC50 (??M)>
0.024

> <Bond Type>
Non-covalent

> <References>
https://doi.org/10.1021/acscentsci.1c00039

> <Year>
2020

> <StandardizerResult>
Remove Explicit Hydrogens (ID: RemoveExplicitH)
Dearomatize (ID: Dearomatize)
Clear Stereo (ID: ClearStereo)
Wedge Clean (ID: WedgeClean)
Mesomerize (ID: Mesomerize)
Tautomerize (ID: Tautomerize)
Aromatize (ID: Aromatize)
Add Explicit Hydrogens (ID: AddExplicitH)
Neutralize (ID: Neutralize)
Clean 2D (ID: Clean2D)

> <Molecule (InChiKey)>
JNZBKQUMTMLNQO-UHFFFAOYSA-N

> <Outcome>
Active

> <IC50 (uM)>
0.024

> <SMILES>
FC1=C(COC2=CC(Cl)=CC(=C2)C2=CC(=CN(C2=O)C2=CN=CC=C2)C2=CNC(=O)NC2=O)C=CC=C1

$$$$

  Mrv2016 04192109512D          

 58 62  0  0  0  0            999 V2000
   -1.3259    2.1604    0.0000 Cl  0  0  0  0  0  0  0  0  0  0  0  0
   -1.3259    1.3354    0.0000 C   0  0  0  0  0  0  0  0  0  0  0  0
   -0.6114    0.9229    0.0000 C   0  0  0  0  0  0  0  0  0  0  0  0
   -0.6114    0.0979    0.0000 C   0  0  0  0  0  0  0  0  0  0  0  0
   -1.3259   -0.3146    0.0000 C   0  0  0  0  0  0  0  0  0  0  0  0
   -2.0403    0.0979    0.0000 C   0  0  0  0  0  0  0  0  0  0  0  0
   -2.7548   -0.3146    0.0000 O   0  0  0  0  0  0  0  0  0  0  0  0
   -3.4693    0.0979    0.0000 C   0  0  0  0  0  0  0  0  0  0  0  0
   -4.1838   -0.3146    0.0000 C   0  0  0  0  0  0  0  0  0  0  0  0
   -4.8982    0.0979    0.0000 C   0  0  0  0  0  0  0  0  0  0  0  0
   -5.6127   -0.3146    0.0000 C   0  0  0  0  0  0  0  0  0  0  0  0
   -6.3272    0.0979    0.0000 C   0  0  0  0  0  0  0  0  0  0  0  0
   -6.3272    0.9229    0.0000 C   0  0  0  0  0  0  0  0  0  0  0  0
   -5.6127    1.3354    0.0000 C   0  0  0  0  0  0  0  0  0  0  0  0
   -4.8982    0.9229    0.0000 C   0  0  0  0  0  0  0  0  0  0  0  0
   -2.0403    0.9229    0.0000 C   0  0  0  0  0  0  0  0  0  0  0  0
    0.1031   -0.3146    0.0000 C   0  0  0  0  0  0  0  0  0  0  0  0
    0.8175    0.0979    0.0000 C   0  0  0  0  0  0  0  0  0  0  0  0
    1.5320   -0.3146    0.0000 C   0  0  0  0  0  0  0  0  0  0  0  0
    1.5320   -1.1396    0.0000 C   0  0  0  0  0  0  0  0  0  0  0  0
    0.8175   -1.5521    0.0000 N   0  0  0  0  0  0  0  0  0  0  0  0
    0.1031   -1.1396    0.0000 C   0  0  0  0  0  0  0  0  0  0  0  0
   -0.6114   -1.5521    0.0000 O   0  0  0  0  0  0  0  0  0  0  0  0
    0.8175   -2.3771    0.0000 C   0  0  0  0  0  0  0  0  0  0  0  0
    1.5320   -2.7896    0.0000 C   0  0  0  0  0  0  0  0  0  0  0  0
    1.5320   -3.6146    0.0000 N   0  0  0  0  0  0  0  0  0  0  0  0
    0.8175   -4.0271    0.0000 C   0  0  0  0  0  0  0  0  0  0  0  0
    0.1031   -3.6146    0.0000 C   0  0  0  0  0  0  0  0  0  0  0  0
    0.1031   -2.7896    0.0000 C   0  0  0  0  0  0  0  0  0  0  0  0
    2.2465    0.0979    0.0000 C   0  0  0  0  0  0  0  0  0  0  0  0
    2.2465    0.9229    0.0000 C   0  0  0  0  0  0  0  0  0  0  0  0
    2.9609    1.3354    0.0000 N   0  0  0  0  0  0  0  0  0  0  0  0
    3.6754    0.9229    0.0000 C   0  0  0  0  0  0  0  0  0  0  0  0
    4.3899    1.3354    0.0000 O   0  0  0  0  0  0  0  0  0  0  0  0
    3.6754    0.0979    0.0000 N   0  0  0  0  0  0  0  0  0  0  0  0
    2.9609   -0.3146    0.0000 C   0  0  0  0  0  0  0  0  0  0  0  0
    2.9609   -1.1396    0.0000 O   0  0  0  0  0  0  0  0  0  0  0  0
    0.1031    1.3354    0.0000 H   0  0  0  0  0  0  0  0  0  0  0  0
   -1.3259   -1.1396    0.0000 H   0  0  0  0  0  0  0  0  0  0  0  0
   -3.0990    0.8351    0.0000 H   0  0  0  0  0  0  0  0  0  0  0  0
   -3.8395    0.8351    0.0000 H   0  0  0  0  0  0  0  0  0  0  0  0
   -4.5540   -1.0518    0.0000 H   0  0  0  0  0  0  0  0  0  0  0  0
   -3.8135   -1.0518    0.0000 H   0  0  0  0  0  0  0  0  0  0  0  0
   -5.6127   -1.1396    0.0000 H   0  0  0  0  0  0  0  0  0  0  0  0
   -7.0416   -0.3146    0.0000 H   0  0  0  0  0  0  0  0  0  0  0  0
   -7.0416    1.3354    0.0000 H   0  0  0  0  0  0  0  0  0  0  0  0
   -5.6127    2.1604    0.0000 H   0  0  0  0  0  0  0  0  0  0  0  0
   -4.1838    1.3354    0.0000 H   0  0  0  0  0  0  0  0  0  0  0  0
   -2.7548    1.3354    0.0000 H   0  0  0  0  0  0  0  0  0  0  0  0
    0.8175    0.9229    0.0000 H   0  0  0  0  0  0  0  0  0  0  0  0
    2.2465   -1.5521    0.0000 H   0  0  0  0  0  0  0  0  0  0  0  0
    2.2465   -2.3771    0.0000 H   0  0  0  0  0  0  0  0  0  0  0  0
    0.8175   -4.8521    0.0000 H   0  0  0  0  0  0  0  0  0  0  0  0
   -0.6114   -4.0271    0.0000 H   0  0  0  0  0  0  0  0  0  0  0  0
   -0.6114   -2.3771    0.0000 H   0  0  0  0  0  0  0  0  0  0  0  0
    1.5320    1.3354    0.0000 H   0  0  0  0  0  0  0  0  0  0  0  0
    2.9609    2.1604    0.0000 H   0  0  0  0  0  0  0  0  0  0  0  0
    4.3899   -0.3146    0.0000 H   0  0  0  0  0  0  0  0  0  0  0  0
  1  2  1  0  0  0  0
  2  3  4  0  0  0  0
  3  4  4  0  0  0  0
  4  5  4  0  0  0  0
  5  6  4  0  0  0  0
  6  7  1  0  0  0  0
  7  8  1  0  0  0  0
  8  9  1  0  0  0  0
  9 10  1  0  0  0  0
 10 11  4  0  0  0  0
 11 12  4  0  0  0  0
 12 13  4  0  0  0  0
 13 14  4  0  0  0  0
 14 15  4  0  0  0  0
  6 16  4  0  0  0  0
  4 17  1  0  0  0  0
 17 18  2  0  0  0  0
 18 19  1  0  0  0  0
 19 20  2  0  0  0  0
 20 21  1  0  0  0  0
 21 22  1  0  0  0  0
 22 23  2  0  0  0  0
 21 24  1  0  0  0  0
 24 25  4  0  0  0  0
 25 26  4  0  0  0  0
 26 27  4  0  0  0  0
 27 28  4  0  0  0  0
 28 29  4  0  0  0  0
 19 30  1  0  0  0  0
 30 31  2  0  0  0  0
 31 32  1  0  0  0  0
 32 33  1  0  0  0  0
 33 34  2  0  0  0  0
 33 35  1  0  0  0  0
 35 36  1  0  0  0  0
 36 37  2  0  0  0  0
 16  2  4  0  0  0  0
 22 17  1  0  0  0  0
 29 24  4  0  0  0  0
 36 30  1  0  0  0  0
 15 10  4  0  0  0  0
  3 38  1  0  0  0  0
  5 39  1  0  0  0  0
  8 40  1  0  0  0  0
  8 41  1  0  0  0  0
  9 42  1  0  0  0  0
  9 43  1  0  0  0  0
 11 44  1  0  0  0  0
 12 45  1  0  0  0  0
 13 46  1  0  0  0  0
 14 47  1  0  0  0  0
 15 48  1  0  0  0  0
 16 49  1  0  0  0  0
 18 50  1  0  0  0  0
 20 51  1  0  0  0  0
 25 52  1  0  0  0  0
 27 53  1  0  0  0  0
 28 54  1  0  0  0  0
 29 55  1  0  0  0  0
 31 56  1  0  0  0  0
 32 57  1  0  0  0  0
 35 58  1  0  0  0  0
M  END
> <Compound>
15

>  <SMILE>
ClC1=CC(=CC(OCCC2=CC=CC=C2)=C1)C1=CC(=CN(C1=O)C1=CN=CC=C1)C1=CNC(=O)NC1=O

> <Relation>
=

>  <IC50 (??M)>
0.11

> <Bond Type>
Non-covalent

> <References>
https://doi.org/10.1021/acscentsci.1c00039

> <Year>
2020

> <StandardizerResult>
Remove Explicit Hydrogens (ID: RemoveExplicitH)
Dearomatize (ID: Dearomatize)
Clear Stereo (ID: ClearStereo)
Wedge Clean (ID: WedgeClean)
Mesomerize (ID: Mesomerize)
Tautomerize (ID: Tautomerize)
Aromatize (ID: Aromatize)
Add Explicit Hydrogens (ID: AddExplicitH)
Neutralize (ID: Neutralize)
Clean 2D (ID: Clean2D)

> <Molecule (InChiKey)>
JVSFPWJWCIUVJO-UHFFFAOYSA-N

> <Outcome>
Active

> <IC50 (uM)>
0.11

> <SMILES>
ClC1=CC(=CC(OCCC2=CC=CC=C2)=C1)C1=CC(=CN(C1=O)C1=CN=CC=C1)C1=CNC(=O)NC1=O

$$$$

  Mrv2016 04192109512D          

 55 59  0  0  0  0            999 V2000
   -1.7288    4.3979    0.0000 F   0  0  0  0  0  0  0  0  0  0  0  0
   -1.7288    3.5729    0.0000 C   0  0  0  0  0  0  0  0  0  0  0  0
   -1.0143    3.1604    0.0000 C   0  0  0  0  0  0  0  0  0  0  0  0
   -1.0143    2.3354    0.0000 C   0  0  0  0  0  0  0  0  0  0  0  0
   -0.2998    1.9229    0.0000 Cl  0  0  0  0  0  0  0  0  0  0  0  0
   -1.7288    1.9229    0.0000 C   0  0  0  0  0  0  0  0  0  0  0  0
   -1.7288    1.0979    0.0000 C   0  0  0  0  0  0  0  0  0  0  0  0
   -2.4432    0.6854    0.0000 O   0  0  0  0  0  0  0  0  0  0  0  0
   -2.4432   -0.1396    0.0000 C   0  0  0  0  0  0  0  0  0  0  0  0
   -1.7288   -0.5521    0.0000 C   0  0  0  0  0  0  0  0  0  0  0  0
   -1.7288   -1.3771    0.0000 C   0  0  0  0  0  0  0  0  0  0  0  0
   -1.0143   -1.7896    0.0000 Cl  0  0  0  0  0  0  0  0  0  0  0  0
   -2.4432   -1.7896    0.0000 C   0  0  0  0  0  0  0  0  0  0  0  0
   -3.1577   -1.3771    0.0000 C   0  0  0  0  0  0  0  0  0  0  0  0
   -3.1577   -0.5521    0.0000 C   0  0  0  0  0  0  0  0  0  0  0  0
   -3.8722   -1.7896    0.0000 C   0  0  0  0  0  0  0  0  0  0  0  0
   -3.8722   -2.6146    0.0000 C   0  0  0  0  0  0  0  0  0  0  0  0
   -4.5867   -3.0271    0.0000 C   0  0  0  0  0  0  0  0  0  0  0  0
   -5.3011   -2.6146    0.0000 C   0  0  0  0  0  0  0  0  0  0  0  0
   -5.3011   -1.7896    0.0000 N   0  0  0  0  0  0  0  0  0  0  0  0
   -4.5867   -1.3771    0.0000 C   0  0  0  0  0  0  0  0  0  0  0  0
   -4.5867   -0.5521    0.0000 O   0  0  0  0  0  0  0  0  0  0  0  0
   -6.0156   -1.3771    0.0000 C   0  0  0  0  0  0  0  0  0  0  0  0
   -6.7301   -1.7896    0.0000 C   0  0  0  0  0  0  0  0  0  0  0  0
   -7.4445   -1.3771    0.0000 N   0  0  0  0  0  0  0  0  0  0  0  0
   -7.4445   -0.5521    0.0000 C   0  0  0  0  0  0  0  0  0  0  0  0
   -6.7301   -0.1396    0.0000 C   0  0  0  0  0  0  0  0  0  0  0  0
   -6.0156   -0.5521    0.0000 C   0  0  0  0  0  0  0  0  0  0  0  0
   -4.5867   -3.8521    0.0000 C   0  0  0  0  0  0  0  0  0  0  0  0
   -3.8722   -4.2646    0.0000 C   0  0  0  0  0  0  0  0  0  0  0  0
   -3.8722   -5.0896    0.0000 N   0  0  0  0  0  0  0  0  0  0  0  0
   -4.5867   -5.5021    0.0000 C   0  0  0  0  0  0  0  0  0  0  0  0
   -4.5867   -6.3271    0.0000 O   0  0  0  0  0  0  0  0  0  0  0  0
   -5.3011   -5.0896    0.0000 N   0  0  0  0  0  0  0  0  0  0  0  0
   -5.3011   -4.2646    0.0000 C   0  0  0  0  0  0  0  0  0  0  0  0
   -6.0156   -3.8521    0.0000 O   0  0  0  0  0  0  0  0  0  0  0  0
   -2.4432    2.3354    0.0000 C   0  0  0  0  0  0  0  0  0  0  0  0
   -2.4432    3.1604    0.0000 C   0  0  0  0  0  0  0  0  0  0  0  0
   -0.2998    3.5729    0.0000 H   0  0  0  0  0  0  0  0  0  0  0  0
   -1.2754    0.4086    0.0000 H   0  0  0  0  0  0  0  0  0  0  0  0
   -0.9052    1.0499    0.0000 H   0  0  0  0  0  0  0  0  0  0  0  0
   -1.0143   -0.1396    0.0000 H   0  0  0  0  0  0  0  0  0  0  0  0
   -2.4432   -2.6146    0.0000 H   0  0  0  0  0  0  0  0  0  0  0  0
   -3.8722   -0.1396    0.0000 H   0  0  0  0  0  0  0  0  0  0  0  0
   -3.1577   -3.0271    0.0000 H   0  0  0  0  0  0  0  0  0  0  0  0
   -6.0156   -3.0271    0.0000 H   0  0  0  0  0  0  0  0  0  0  0  0
   -6.7301   -2.6146    0.0000 H   0  0  0  0  0  0  0  0  0  0  0  0
   -8.1590   -0.1396    0.0000 H   0  0  0  0  0  0  0  0  0  0  0  0
   -6.7301    0.6854    0.0000 H   0  0  0  0  0  0  0  0  0  0  0  0
   -5.3011   -0.1396    0.0000 H   0  0  0  0  0  0  0  0  0  0  0  0
   -3.1577   -3.8521    0.0000 H   0  0  0  0  0  0  0  0  0  0  0  0
   -3.1577   -5.5021    0.0000 H   0  0  0  0  0  0  0  0  0  0  0  0
   -6.0156   -5.5021    0.0000 H   0  0  0  0  0  0  0  0  0  0  0  0
   -3.1577    1.9229    0.0000 H   0  0  0  0  0  0  0  0  0  0  0  0
   -3.1577    3.5729    0.0000 H   0  0  0  0  0  0  0  0  0  0  0  0
  1  2  1  0  0  0  0
  2  3  4  0  0  0  0
  3  4  4  0  0  0  0
  4  5  1  0  0  0  0
  4  6  4  0  0  0  0
  6  7  1  0  0  0  0
  7  8  1  0  0  0  0
  8  9  1  0  0  0  0
  9 10  4  0  0  0  0
 10 11  4  0  0  0  0
 11 12  1  0  0  0  0
 11 13  4  0  0  0  0
 13 14  4  0  0  0  0
 14 15  4  0  0  0  0
 14 16  1  0  0  0  0
 16 17  2  0  0  0  0
 17 18  1  0  0  0  0
 18 19  2  0  0  0  0
 19 20  1  0  0  0  0
 20 21  1  0  0  0  0
 21 22  2  0  0  0  0
 20 23  1  0  0  0  0
 23 24  4  0  0  0  0
 24 25  4  0  0  0  0
 25 26  4  0  0  0  0
 26 27  4  0  0  0  0
 27 28  4  0  0  0  0
 18 29  1  0  0  0  0
 29 30  2  0  0  0  0
 30 31  1  0  0  0  0
 31 32  1  0  0  0  0
 32 33  2  0  0  0  0
 32 34  1  0  0  0  0
 34 35  1  0  0  0  0
 35 36  2  0  0  0  0
  6 37  4  0  0  0  0
 37 38  4  0  0  0  0
 38  2  4  0  0  0  0
 15  9  4  0  0  0  0
 21 16  1  0  0  0  0
 28 23  4  0  0  0  0
 35 29  1  0  0  0  0
  3 39  1  0  0  0  0
  7 40  1  0  0  0  0
  7 41  1  0  0  0  0
 10 42  1  0  0  0  0
 13 43  1  0  0  0  0
 15 44  1  0  0  0  0
 17 45  1  0  0  0  0
 19 46  1  0  0  0  0
 24 47  1  0  0  0  0
 26 48  1  0  0  0  0
 27 49  1  0  0  0  0
 28 50  1  0  0  0  0
 30 51  1  0  0  0  0
 31 52  1  0  0  0  0
 34 53  1  0  0  0  0
 37 54  1  0  0  0  0
 38 55  1  0  0  0  0
M  END
> <Compound>
22

>  <SMILE>
FC1=CC(Cl)=C(COC2=CC(Cl)=CC(=C2)C2=CC(=CN(C2=O)C2=CN=CC=C2)C2=CNC(=O)NC2=O)C=C1

> <Relation>
=

>  <IC50 (??M)>
0.036

> <Bond Type>
Non-covalent

> <References>
https://doi.org/10.1021/acscentsci.1c00039

> <Year>
2020

> <StandardizerResult>
Remove Explicit Hydrogens (ID: RemoveExplicitH)
Dearomatize (ID: Dearomatize)
Clear Stereo (ID: ClearStereo)
Wedge Clean (ID: WedgeClean)
Mesomerize (ID: Mesomerize)
Tautomerize (ID: Tautomerize)
Aromatize (ID: Aromatize)
Add Explicit Hydrogens (ID: AddExplicitH)
Neutralize (ID: Neutralize)
Clean 2D (ID: Clean2D)

> <Molecule (InChiKey)>
JZJVGWWXTLJZIK-UHFFFAOYSA-N

> <Outcome>
Active

> <IC50 (uM)>
0.036

> <SMILES>
FC1=CC(Cl)=C(COC2=CC(Cl)=CC(=C2)C2=CC(=CN(C2=O)C2=CN=CC=C2)C2=CNC(=O)NC2=O)C=C1

$$$$

  Mrv2016 04192109512D          

 57 60  0  0  0  0            999 V2000
    2.6814    6.3148    0.0000 C   0  0  0  0  0  0  0  0  0  0  0  0
    2.6814    5.4898    0.0000 O   0  0  0  0  0  0  0  0  0  0  0  0
    1.9669    5.0773    0.0000 C   0  0  0  0  0  0  0  0  0  0  0  0
    1.9669    4.2523    0.0000 C   0  0  0  0  0  0  0  0  0  0  0  0
    1.2525    3.8398    0.0000 O   0  0  0  0  0  0  0  0  0  0  0  0
    1.2525    3.0148    0.0000 C   0  0  0  0  0  0  0  0  0  0  0  0
    1.9669    2.6023    0.0000 C   0  0  0  0  0  0  0  0  0  0  0  0
    1.9669    1.7773    0.0000 C   0  0  0  0  0  0  0  0  0  0  0  0
    2.6814    1.3648    0.0000 Cl  0  0  0  0  0  0  0  0  0  0  0  0
    1.2525    1.3648    0.0000 C   0  0  0  0  0  0  0  0  0  0  0  0
    0.5380    1.7773    0.0000 C   0  0  0  0  0  0  0  0  0  0  0  0
    0.5380    2.6023    0.0000 C   0  0  0  0  0  0  0  0  0  0  0  0
   -0.1765    1.3648    0.0000 C   0  0  0  0  0  0  0  0  0  0  0  0
   -0.1765    0.5398    0.0000 C   0  0  0  0  0  0  0  0  0  0  0  0
   -0.8910    0.1273    0.0000 C   0  0  0  0  0  0  0  0  0  0  0  0
   -1.6054    0.5398    0.0000 C   0  0  0  0  0  0  0  0  0  0  0  0
   -1.6054    1.3648    0.0000 N   0  0  0  0  0  0  0  0  0  0  0  0
   -2.3199    1.7773    0.0000 C   0  0  0  0  0  0  0  0  0  0  0  0
   -3.0344    1.3648    0.0000 C   0  0  0  0  0  0  0  0  0  0  0  0
   -3.7488    1.7773    0.0000 N   0  0  0  0  0  0  0  0  0  0  0  0
   -3.7488    2.6023    0.0000 C   0  0  0  0  0  0  0  0  0  0  0  0
   -3.0344    3.0148    0.0000 C   0  0  0  0  0  0  0  0  0  0  0  0
   -2.3199    2.6023    0.0000 C   0  0  0  0  0  0  0  0  0  0  0  0
   -0.8910    1.7773    0.0000 C   0  0  0  0  0  0  0  0  0  0  0  0
   -0.8910    2.6023    0.0000 O   0  0  0  0  0  0  0  0  0  0  0  0
   -0.8910   -0.6977    0.0000 C   0  0  0  0  0  0  0  0  0  0  0  0
   -0.1765   -1.1102    0.0000 C   0  0  0  0  0  0  0  0  0  0  0  0
   -0.1765   -1.9352    0.0000 C   0  0  0  0  0  0  0  0  0  0  0  0
   -0.8910   -2.3477    0.0000 C   0  0  0  0  0  0  0  0  0  0  0  0
   -1.6054   -1.9352    0.0000 C   0  0  0  0  0  0  0  0  0  0  0  0
   -1.6054   -1.1102    0.0000 C   0  0  0  0  0  0  0  0  0  0  0  0
   -2.3199   -0.6977    0.0000 C   0  0  0  0  0  0  0  0  0  0  0  0
   -2.3199    0.1273    0.0000 N   0  0  0  0  0  0  0  0  0  0  0  0
    3.5064    6.3148    0.0000 H   0  0  0  0  0  0  0  0  0  0  0  0
    2.6814    7.1398    0.0000 H   0  0  0  0  0  0  0  0  0  0  0  0
    1.8564    6.3148    0.0000 H   0  0  0  0  0  0  0  0  0  0  0  0
    1.5136    5.7666    0.0000 H   0  0  0  0  0  0  0  0  0  0  0  0
    1.1433    5.1253    0.0000 H   0  0  0  0  0  0  0  0  0  0  0  0
    2.4203    3.5630    0.0000 H   0  0  0  0  0  0  0  0  0  0  0  0
    2.7905    4.2043    0.0000 H   0  0  0  0  0  0  0  0  0  0  0  0
    2.6814    3.0148    0.0000 H   0  0  0  0  0  0  0  0  0  0  0  0
    1.2525    0.5398    0.0000 H   0  0  0  0  0  0  0  0  0  0  0  0
   -0.1765    3.0148    0.0000 H   0  0  0  0  0  0  0  0  0  0  0  0
    0.5380    0.1273    0.0000 H   0  0  0  0  0  0  0  0  0  0  0  0
   -2.3199    0.9523    0.0000 H   0  0  0  0  0  0  0  0  0  0  0  0
   -3.4469    0.6503    0.0000 H   0  0  0  0  0  0  0  0  0  0  0  0
   -4.4633    3.0148    0.0000 H   0  0  0  0  0  0  0  0  0  0  0  0
   -3.0344    3.8398    0.0000 H   0  0  0  0  0  0  0  0  0  0  0  0
   -1.6054    3.0148    0.0000 H   0  0  0  0  0  0  0  0  0  0  0  0
    0.5380   -0.6977    0.0000 H   0  0  0  0  0  0  0  0  0  0  0  0
    0.5380   -2.3477    0.0000 H   0  0  0  0  0  0  0  0  0  0  0  0
   -0.8910   -3.1727    0.0000 H   0  0  0  0  0  0  0  0  0  0  0  0
   -2.3199   -2.3477    0.0000 H   0  0  0  0  0  0  0  0  0  0  0  0
   -3.1435   -0.7457    0.0000 H   0  0  0  0  0  0  0  0  0  0  0  0
   -2.7732   -1.3870    0.0000 H   0  0  0  0  0  0  0  0  0  0  0  0
   -3.0951    0.4095    0.0000 H   0  0  0  0  0  0  0  0  0  0  0  0
   -3.0951   -0.1549    0.0000 H   0  0  0  0  0  0  0  0  0  0  0  0
  1  2  1  0  0  0  0
  2  3  1  0  0  0  0
  3  4  1  0  0  0  0
  4  5  1  0  0  0  0
  5  6  1  0  0  0  0
  6  7  4  0  0  0  0
  7  8  4  0  0  0  0
  8  9  1  0  0  0  0
  8 10  4  0  0  0  0
 10 11  4  0  0  0  0
 11 12  4  0  0  0  0
 11 13  1  0  0  0  0
 13 14  2  0  0  0  0
 14 15  1  0  0  0  0
 15 16  2  0  0  0  0
 16 17  1  0  0  0  0
 17 18  1  0  0  0  0
 18 19  4  0  0  0  0
 19 20  4  0  0  0  0
 20 21  4  0  0  0  0
 21 22  4  0  0  0  0
 22 23  4  0  0  0  0
 17 24  1  0  0  0  0
 24 25  2  0  0  0  0
 15 26  1  0  0  0  0
 26 27  4  0  0  0  0
 27 28  4  0  0  0  0
 28 29  4  0  0  0  0
 29 30  4  0  0  0  0
 30 31  4  0  0  0  0
 31 32  1  0  0  0  0
 32 33  1  0  0  0  0
 12  6  4  0  0  0  0
 24 13  1  0  0  0  0
 31 26  4  0  0  0  0
 23 18  4  0  0  0  0
  1 34  1  0  0  0  0
  1 35  1  0  0  0  0
  1 36  1  0  0  0  0
  3 37  1  0  0  0  0
  3 38  1  0  0  0  0
  4 39  1  0  0  0  0
  4 40  1  0  0  0  0
  7 41  1  0  0  0  0
 10 42  1  0  0  0  0
 12 43  1  0  0  0  0
 14 44  1  0  0  0  0
 16 45  1  0  0  0  0
 19 46  1  0  0  0  0
 21 47  1  0  0  0  0
 22 48  1  0  0  0  0
 23 49  1  0  0  0  0
 27 50  1  0  0  0  0
 28 51  1  0  0  0  0
 29 52  1  0  0  0  0
 30 53  1  0  0  0  0
 32 54  1  0  0  0  0
 32 55  1  0  0  0  0
 33 56  1  0  0  0  0
 33 57  1  0  0  0  0
M  END
> <Compound>
6

>  <SMILE>
COCCOC1=CC(Cl)=CC(=C1)C1=CC(=CN(C2=CN=CC=C2)C1=O)C1=CC=CC=C1CN

> <Relation>
=

>  <IC50 (??M)>
0.47

> <Bond Type>
Non-covalent

> <References>
https://doi.org/10.1021/acscentsci.1c00039

> <Year>
2020

> <StandardizerResult>
Remove Explicit Hydrogens (ID: RemoveExplicitH)
Dearomatize (ID: Dearomatize)
Clear Stereo (ID: ClearStereo)
Wedge Clean (ID: WedgeClean)
Mesomerize (ID: Mesomerize)
Tautomerize (ID: Tautomerize)
Aromatize (ID: Aromatize)
Add Explicit Hydrogens (ID: AddExplicitH)
Neutralize (ID: Neutralize)
Clean 2D (ID: Clean2D)

> <Molecule (InChiKey)>
KONPUXFRIIGKNB-UHFFFAOYSA-N

> <Outcome>
Active

> <IC50 (uM)>
0.47

> <SMILES>
COCCOC1=CC(Cl)=CC(=C1)C1=CC(=CN(C2=CN=CC=C2)C1=O)C1=CC=CC=C1CN

$$$$

  Mrv2016 04192109512D          

 64 68  0  0  0  0            999 V2000
   -3.3350   -2.6447    0.0000 C   0  0  0  0  0  0  0  0  0  0  0  0
   -2.5100   -2.6447    0.0000 C   0  0  0  0  0  0  0  0  0  0  0  0
   -2.0975   -1.9302    0.0000 N   0  0  0  0  0  0  0  0  0  0  0  0
   -1.2725   -1.9302    0.0000 C   0  0  0  0  0  0  0  0  0  0  0  0
   -0.8600   -2.6447    0.0000 O   0  0  0  0  0  0  0  0  0  0  0  0
   -0.8600   -1.2158    0.0000 C   0  0  0  0  0  0  0  0  0  0  0  0
   -0.0350   -1.2158    0.0000 N   0  0  0  0  0  0  0  0  0  0  0  0
    0.3775   -1.9302    0.0000 C   0  0  0  0  0  0  0  0  0  0  0  0
   -0.0350   -2.6447    0.0000 O   0  0  0  0  0  0  0  0  0  0  0  0
    1.2025   -1.9302    0.0000 C   0  0  0  0  0  0  0  0  0  0  0  0
    1.6874   -2.5977    0.0000 C   0  0  0  0  0  0  0  0  0  0  0  0
    2.4720   -2.3427    0.0000 C   0  0  0  0  0  0  0  0  0  0  0  0
    2.4720   -1.5177    0.0000 C   0  0  0  0  0  0  0  0  0  0  0  0
    1.6874   -1.2628    0.0000 O   0  0  0  0  0  0  0  0  0  0  0  0
    0.3775   -0.5013    0.0000 C   0  0  0  0  0  0  0  0  0  0  0  0
   -0.0350    0.2132    0.0000 C   0  0  0  0  0  0  0  0  0  0  0  0
    0.3775    0.9276    0.0000 C   0  0  0  0  0  0  0  0  0  0  0  0
    1.2025    0.9276    0.0000 C   0  0  0  0  0  0  0  0  0  0  0  0
    1.6150    0.2132    0.0000 C   0  0  0  0  0  0  0  0  0  0  0  0
    1.2025   -0.5013    0.0000 C   0  0  0  0  0  0  0  0  0  0  0  0
    1.6150    1.6421    0.0000 C   0  0  0  0  0  0  0  0  0  0  0  0
    1.2025    2.3566    0.0000 C   0  0  0  0  0  0  0  0  0  0  0  0
    1.6150    3.0711    0.0000 C   0  0  0  0  0  0  0  0  0  0  0  0
    2.4400    3.0711    0.0000 C   0  0  0  0  0  0  0  0  0  0  0  0
    2.8525    2.3566    0.0000 C   0  0  0  0  0  0  0  0  0  0  0  0
    2.4400    1.6421    0.0000 C   0  0  0  0  0  0  0  0  0  0  0  0
   -1.2725   -0.5013    0.0000 C   0  0  0  0  0  0  0  0  0  0  0  0
   -2.0975   -0.5013    0.0000 N   0  0  0  0  0  0  0  0  0  0  0  0
   -2.5100    0.2132    0.0000 C   0  0  0  0  0  0  0  0  0  0  0  0
   -2.0975    0.9276    0.0000 C   0  0  0  0  0  0  0  0  0  0  0  0
   -1.2725    0.9276    0.0000 N   0  0  0  0  0  0  0  0  0  0  0  0
   -0.8600    0.2132    0.0000 C   0  0  0  0  0  0  0  0  0  0  0  0
   -2.0975   -3.3592    0.0000 C   0  0  0  0  0  0  0  0  0  0  0  0
   -1.2725   -3.3592    0.0000 C   0  0  0  0  0  0  0  0  0  0  0  0
   -0.8600   -4.0737    0.0000 C   0  0  0  0  0  0  0  0  0  0  0  0
   -1.2725   -4.7881    0.0000 C   0  0  0  0  0  0  0  0  0  0  0  0
   -2.0975   -4.7881    0.0000 C   0  0  0  0  0  0  0  0  0  0  0  0
   -2.5100   -4.0737    0.0000 C   0  0  0  0  0  0  0  0  0  0  0  0
   -3.3350   -1.8197    0.0000 H   0  0  0  0  0  0  0  0  0  0  0  0
   -4.1600   -2.6447    0.0000 H   0  0  0  0  0  0  0  0  0  0  0  0
   -3.3350   -3.4697    0.0000 H   0  0  0  0  0  0  0  0  0  0  0  0
   -2.9225   -1.9302    0.0000 H   0  0  0  0  0  0  0  0  0  0  0  0
   -2.0975   -1.1052    0.0000 H   0  0  0  0  0  0  0  0  0  0  0  0
   -0.4475   -1.9302    0.0000 H   0  0  0  0  0  0  0  0  0  0  0  0
    1.4324   -3.3823    0.0000 H   0  0  0  0  0  0  0  0  0  0  0  0
    3.1394   -2.8277    0.0000 H   0  0  0  0  0  0  0  0  0  0  0  0
    3.1394   -1.0328    0.0000 H   0  0  0  0  0  0  0  0  0  0  0  0
   -0.4475   -0.5013    0.0000 H   0  0  0  0  0  0  0  0  0  0  0  0
   -0.0350    1.6421    0.0000 H   0  0  0  0  0  0  0  0  0  0  0  0
    2.4400    0.2132    0.0000 H   0  0  0  0  0  0  0  0  0  0  0  0
    0.8056   -1.2246    0.0000 H   0  0  0  0  0  0  0  0  0  0  0  0
    0.3775    2.3566    0.0000 H   0  0  0  0  0  0  0  0  0  0  0  0
    1.2025    3.7855    0.0000 H   0  0  0  0  0  0  0  0  0  0  0  0
    2.8525    3.7855    0.0000 H   0  0  0  0  0  0  0  0  0  0  0  0
    3.6775    2.3566    0.0000 H   0  0  0  0  0  0  0  0  0  0  0  0
    2.8525    0.9276    0.0000 H   0  0  0  0  0  0  0  0  0  0  0  0
   -3.3350    0.2132    0.0000 H   0  0  0  0  0  0  0  0  0  0  0  0
   -2.5100    1.6421    0.0000 H   0  0  0  0  0  0  0  0  0  0  0  0
   -1.6850    0.2132    0.0000 H   0  0  0  0  0  0  0  0  0  0  0  0
   -1.6850   -2.6447    0.0000 H   0  0  0  0  0  0  0  0  0  0  0  0
   -0.0350   -4.0737    0.0000 H   0  0  0  0  0  0  0  0  0  0  0  0
   -0.8600   -5.5026    0.0000 H   0  0  0  0  0  0  0  0  0  0  0  0
   -2.5100   -5.5026    0.0000 H   0  0  0  0  0  0  0  0  0  0  0  0
   -3.3350   -4.0737    0.0000 H   0  0  0  0  0  0  0  0  0  0  0  0
  2  1  1  0  0  0  0
  2  3  1  0  0  0  0
  3  4  1  0  0  0  0
  4  5  2  0  0  0  0
  4  6  1  0  0  0  0
  6  7  1  0  0  0  0
  7  8  1  0  0  0  0
  8  9  2  0  0  0  0
  8 10  1  0  0  0  0
 10 11  4  0  0  0  0
 11 12  4  0  0  0  0
 12 13  4  0  0  0  0
 13 14  4  0  0  0  0
  7 15  1  0  0  0  0
 15 16  4  0  0  0  0
 16 17  4  0  0  0  0
 17 18  4  0  0  0  0
 18 19  4  0  0  0  0
 19 20  4  0  0  0  0
 18 21  1  0  0  0  0
 21 22  4  0  0  0  0
 22 23  4  0  0  0  0
 23 24  4  0  0  0  0
 24 25  4  0  0  0  0
 25 26  4  0  0  0  0
  6 27  1  0  0  0  0
 27 28  4  0  0  0  0
 28 29  4  0  0  0  0
 29 30  4  0  0  0  0
 30 31  4  0  0  0  0
 31 32  4  0  0  0  0
  2 33  1  0  0  0  0
 33 34  4  0  0  0  0
 34 35  4  0  0  0  0
 35 36  4  0  0  0  0
 36 37  4  0  0  0  0
 37 38  4  0  0  0  0
 14 10  4  0  0  0  0
 20 15  4  0  0  0  0
 26 21  4  0  0  0  0
 32 27  4  0  0  0  0
 38 33  4  0  0  0  0
  1 39  1  0  0  0  0
  1 40  1  0  0  0  0
  1 41  1  0  0  0  0
  2 42  1  0  0  0  0
  3 43  1  0  0  0  0
  6 44  1  0  0  0  0
 11 45  1  0  0  0  0
 12 46  1  0  0  0  0
 13 47  1  0  0  0  0
 16 48  1  0  0  0  0
 17 49  1  0  0  0  0
 19 50  1  0  0  0  0
 20 51  1  0  0  0  0
 22 52  1  0  0  0  0
 23 53  1  0  0  0  0
 24 54  1  0  0  0  0
 25 55  1  0  0  0  0
 26 56  1  0  0  0  0
 29 57  1  0  0  0  0
 30 58  1  0  0  0  0
 32 59  1  0  0  0  0
 34 60  1  0  0  0  0
 35 61  1  0  0  0  0
 36 62  1  0  0  0  0
 37 63  1  0  0  0  0
 38 64  1  0  0  0  0
M  END
> <Compound>
38a

>  <SMILE>
C[C@H](NC(=O)C(N(C(=O)C1=CC=CO1)C1=CC=C(C=C1)C1=CC=CC=C1)C1=NC=CN=C1)C1=CC=CC=C1

> <Relation>
=

>  <IC50 (??M)>
0.28

> <Bond Type>
Non-covalent

> <References>
10.1101/2020.12.19.423537

> <Year>
2020

> <StandardizerResult>
Remove Explicit Hydrogens (ID: RemoveExplicitH)
Dearomatize (ID: Dearomatize)
Clear Stereo (ID: ClearStereo)
Wedge Clean (ID: WedgeClean)
Mesomerize (ID: Mesomerize)
Tautomerize (ID: Tautomerize)
Aromatize (ID: Aromatize)
Add Explicit Hydrogens (ID: AddExplicitH)
Neutralize (ID: Neutralize)
Clean 2D (ID: Clean2D)

> <Molecule (InChiKey)>
LERCEIGOROJLAY-UHFFFAOYSA-N

> <Outcome>
Active

> <IC50 (uM)>
0.28

> <SMILES>
C[C@H](NC(=O)C(N(C(=O)C1=CC=CO1)C1=CC=C(C=C1)C1=CC=CC=C1)C1=NC=CN=C1)C1=CC=CC=C1

$$$$

  Mrv2016 04192109512D          

 56 59  0  0  0  0            999 V2000
    4.6081    2.8079    0.0000 N   0  0  0  0  0  0  0  0  0  0  0  0
    3.8936    2.3954    0.0000 C   0  0  0  0  0  0  0  0  0  0  0  0
    3.8936    1.5704    0.0000 C   0  0  0  0  0  0  0  0  0  0  0  0
    4.6081    1.1579    0.0000 C   0  0  0  0  0  0  0  0  0  0  0  0
    4.6081    0.3329    0.0000 C   0  0  0  0  0  0  0  0  0  0  0  0
    3.8936   -0.0796    0.0000 C   0  0  0  0  0  0  0  0  0  0  0  0
    3.1792    0.3329    0.0000 C   0  0  0  0  0  0  0  0  0  0  0  0
    3.1792    1.1579    0.0000 C   0  0  0  0  0  0  0  0  0  0  0  0
    2.4647    1.5704    0.0000 C   0  0  0  0  0  0  0  0  0  0  0  0
    1.7502    1.1579    0.0000 C   0  0  0  0  0  0  0  0  0  0  0  0
    1.0358    1.5704    0.0000 N   0  0  0  0  0  0  0  0  0  0  0  0
    0.3213    1.1579    0.0000 C   0  0  0  0  0  0  0  0  0  0  0  0
    0.3213    0.3329    0.0000 C   0  0  0  0  0  0  0  0  0  0  0  0
   -0.3932   -0.0796    0.0000 N   0  0  0  0  0  0  0  0  0  0  0  0
   -1.1076    0.3329    0.0000 C   0  0  0  0  0  0  0  0  0  0  0  0
   -1.1076    1.1579    0.0000 C   0  0  0  0  0  0  0  0  0  0  0  0
   -0.3932    1.5704    0.0000 C   0  0  0  0  0  0  0  0  0  0  0  0
    1.0358    2.3954    0.0000 C   0  0  0  0  0  0  0  0  0  0  0  0
    0.3213    2.8079    0.0000 O   0  0  0  0  0  0  0  0  0  0  0  0
    1.7502    2.8079    0.0000 C   0  0  0  0  0  0  0  0  0  0  0  0
    2.4647    2.3954    0.0000 C   0  0  0  0  0  0  0  0  0  0  0  0
    1.7502    3.6329    0.0000 C   0  0  0  0  0  0  0  0  0  0  0  0
    1.0358    4.0454    0.0000 C   0  0  0  0  0  0  0  0  0  0  0  0
    1.0358    4.8704    0.0000 C   0  0  0  0  0  0  0  0  0  0  0  0
    0.3213    5.2829    0.0000 O   0  0  0  0  0  0  0  0  0  0  0  0
   -0.3932    4.8704    0.0000 C   0  0  0  0  0  0  0  0  0  0  0  0
   -1.1076    5.2829    0.0000 C   0  0  0  0  0  0  0  0  0  0  0  0
   -1.8221    4.8704    0.0000 C   0  0  0  0  0  0  0  0  0  0  0  0
   -2.5366    4.4579    0.0000 F   0  0  0  0  0  0  0  0  0  0  0  0
   -2.2346    5.5849    0.0000 F   0  0  0  0  0  0  0  0  0  0  0  0
   -1.4096    4.1559    0.0000 F   0  0  0  0  0  0  0  0  0  0  0  0
    1.7502    5.2829    0.0000 C   0  0  0  0  0  0  0  0  0  0  0  0
    2.4647    4.8704    0.0000 C   0  0  0  0  0  0  0  0  0  0  0  0
    3.1792    5.2829    0.0000 Cl  0  0  0  0  0  0  0  0  0  0  0  0
    2.4647    4.0454    0.0000 C   0  0  0  0  0  0  0  0  0  0  0  0
    5.3226    2.3954    0.0000 H   0  0  0  0  0  0  0  0  0  0  0  0
    4.6081    3.6329    0.0000 H   0  0  0  0  0  0  0  0  0  0  0  0
    3.4403    3.0847    0.0000 H   0  0  0  0  0  0  0  0  0  0  0  0
    3.0700    2.4434    0.0000 H   0  0  0  0  0  0  0  0  0  0  0  0
    5.3226    1.5704    0.0000 H   0  0  0  0  0  0  0  0  0  0  0  0
    5.3226   -0.0796    0.0000 H   0  0  0  0  0  0  0  0  0  0  0  0
    3.8936   -0.9046    0.0000 H   0  0  0  0  0  0  0  0  0  0  0  0
    2.4647   -0.0796    0.0000 H   0  0  0  0  0  0  0  0  0  0  0  0
    1.7502    0.3329    0.0000 H   0  0  0  0  0  0  0  0  0  0  0  0
    1.0358   -0.0796    0.0000 H   0  0  0  0  0  0  0  0  0  0  0  0
   -1.8221   -0.0796    0.0000 H   0  0  0  0  0  0  0  0  0  0  0  0
   -1.8221    1.5704    0.0000 H   0  0  0  0  0  0  0  0  0  0  0  0
   -0.3932    2.3954    0.0000 H   0  0  0  0  0  0  0  0  0  0  0  0
    2.6466    3.2001    0.0000 H   0  0  0  0  0  0  0  0  0  0  0  0
    0.3213    3.6329    0.0000 H   0  0  0  0  0  0  0  0  0  0  0  0
   -0.7634    4.1332    0.0000 H   0  0  0  0  0  0  0  0  0  0  0  0
   -0.0229    4.1332    0.0000 H   0  0  0  0  0  0  0  0  0  0  0  0
   -0.7374    6.0202    0.0000 H   0  0  0  0  0  0  0  0  0  0  0  0
   -1.4779    6.0202    0.0000 H   0  0  0  0  0  0  0  0  0  0  0  0
    1.7502    6.1079    0.0000 H   0  0  0  0  0  0  0  0  0  0  0  0
    3.2851    4.1327    0.0000 H   0  0  0  0  0  0  0  0  0  0  0  0
  1  2  1  0  0  0  0
  2  3  1  0  0  0  0
  3  4  4  0  0  0  0
  4  5  4  0  0  0  0
  5  6  4  0  0  0  0
  6  7  4  0  0  0  0
  7  8  4  0  0  0  0
  8  9  1  0  0  0  0
  9 10  2  0  0  0  0
 10 11  1  0  0  0  0
 11 12  1  0  0  0  0
 12 13  4  0  0  0  0
 13 14  4  0  0  0  0
 14 15  4  0  0  0  0
 15 16  4  0  0  0  0
 16 17  4  0  0  0  0
 11 18  1  0  0  0  0
 18 19  2  0  0  0  0
 18 20  1  0  0  0  0
 20 21  2  0  0  0  0
 20 22  1  0  0  0  0
 22 23  4  0  0  0  0
 23 24  4  0  0  0  0
 24 25  1  0  0  0  0
 25 26  1  0  0  0  0
 26 27  1  0  0  0  0
 27 28  1  0  0  0  0
 28 29  1  0  0  0  0
 28 30  1  0  0  0  0
 28 31  1  0  0  0  0
 24 32  4  0  0  0  0
 32 33  4  0  0  0  0
 33 34  1  0  0  0  0
 33 35  4  0  0  0  0
  8  3  4  0  0  0  0
 21  9  1  0  0  0  0
 35 22  4  0  0  0  0
 17 12  4  0  0  0  0
  1 36  1  0  0  0  0
  1 37  1  0  0  0  0
  2 38  1  0  0  0  0
  2 39  1  0  0  0  0
  4 40  1  0  0  0  0
  5 41  1  0  0  0  0
  6 42  1  0  0  0  0
  7 43  1  0  0  0  0
 10 44  1  0  0  0  0
 13 45  1  0  0  0  0
 15 46  1  0  0  0  0
 16 47  1  0  0  0  0
 17 48  1  0  0  0  0
 21 49  1  0  0  0  0
 23 50  1  0  0  0  0
 26 51  1  0  0  0  0
 26 52  1  0  0  0  0
 27 53  1  0  0  0  0
 27 54  1  0  0  0  0
 32 55  1  0  0  0  0
 35 56  1  0  0  0  0
M  END
> <Compound>
27

>  <SMILE>
NCC1=CC=CC=C1C1=CN(C2=CN=CC=C2)C(=O)C(=C1)C1=CC(OCCC(F)(F)F)=CC(Cl)=C1

> <Relation>
=

>  <IC50 (??M)>
0.12

> <Bond Type>
Non-covalent

> <References>
https://doi.org/10.1021/acscentsci.1c00039

> <Year>
2020

> <StandardizerResult>
Remove Explicit Hydrogens (ID: RemoveExplicitH)
Dearomatize (ID: Dearomatize)
Clear Stereo (ID: ClearStereo)
Wedge Clean (ID: WedgeClean)
Mesomerize (ID: Mesomerize)
Tautomerize (ID: Tautomerize)
Aromatize (ID: Aromatize)
Add Explicit Hydrogens (ID: AddExplicitH)
Neutralize (ID: Neutralize)
Clean 2D (ID: Clean2D)

> <Molecule (InChiKey)>
LINYGHUYNMHAPY-UHFFFAOYSA-N

> <Outcome>
Active

> <IC50 (uM)>
0.12

> <SMILES>
NCC1=CC=CC=C1C1=CN(C2=CN=CC=C2)C(=O)C(=C1)C1=CC(OCCC(F)(F)F)=CC(Cl)=C1

$$$$

  Mrv2016 04192109512D          

 62 66  0  0  0  0            999 V2000
   -0.1228   -3.3303    0.0000 O   0  0  0  0  0  0  0  0  0  0  0  0
    0.5917   -2.9178    0.0000 C   0  0  0  0  0  0  0  0  0  0  0  0
    1.3062   -3.3303    0.0000 N   0  0  0  0  0  0  0  0  0  0  0  0
    1.3062   -4.1553    0.0000 C   0  0  0  0  0  0  0  0  0  0  0  0
    1.9736   -4.6403    0.0000 C   0  0  0  0  0  0  0  0  0  0  0  0
    1.7187   -5.4249    0.0000 C   0  0  0  0  0  0  0  0  0  0  0  0
    0.8937   -5.4249    0.0000 C   0  0  0  0  0  0  0  0  0  0  0  0
    0.6387   -4.6403    0.0000 C   0  0  0  0  0  0  0  0  0  0  0  0
    0.5917   -2.0928    0.0000 C   0  0  0  0  0  0  0  0  0  0  0  0
   -0.1228   -1.6803    0.0000 N   0  0  0  0  0  0  0  0  0  0  0  0
   -0.8372   -2.0928    0.0000 C   0  0  0  0  0  0  0  0  0  0  0  0
   -0.8372   -2.9178    0.0000 O   0  0  0  0  0  0  0  0  0  0  0  0
   -1.5517   -1.6803    0.0000 C   0  0  0  0  0  0  0  0  0  0  0  0
   -2.3054   -2.0159    0.0000 C   0  0  0  0  0  0  0  0  0  0  0  0
   -2.8574   -1.4028    0.0000 N   0  0  0  0  0  0  0  0  0  0  0  0
   -2.4449   -0.6883    0.0000 C   0  0  0  0  0  0  0  0  0  0  0  0
   -1.6379   -0.8599    0.0000 N   0  0  0  0  0  0  0  0  0  0  0  0
   -0.1228   -0.8553    0.0000 C   0  0  0  0  0  0  0  0  0  0  0  0
   -0.8372   -0.4428    0.0000 C   0  0  0  0  0  0  0  0  0  0  0  0
   -0.8372    0.3822    0.0000 C   0  0  0  0  0  0  0  0  0  0  0  0
   -0.1228    0.7947    0.0000 C   0  0  0  0  0  0  0  0  0  0  0  0
    0.5917    0.3822    0.0000 C   0  0  0  0  0  0  0  0  0  0  0  0
    0.5917   -0.4428    0.0000 C   0  0  0  0  0  0  0  0  0  0  0  0
   -0.1228    1.6197    0.0000 C   0  0  0  0  0  0  0  0  0  0  0  0
   -0.8372    2.0322    0.0000 C   0  0  0  0  0  0  0  0  0  0  0  0
   -0.8372    2.8572    0.0000 C   0  0  0  0  0  0  0  0  0  0  0  0
   -0.1228    3.2697    0.0000 C   0  0  0  0  0  0  0  0  0  0  0  0
    0.5917    2.8572    0.0000 C   0  0  0  0  0  0  0  0  0  0  0  0
    0.5917    2.0322    0.0000 C   0  0  0  0  0  0  0  0  0  0  0  0
    1.3062   -1.6803    0.0000 C   0  0  0  0  0  0  0  0  0  0  0  0
    1.3062   -0.8553    0.0000 C   0  0  0  0  0  0  0  0  0  0  0  0
    2.0207   -0.4428    0.0000 C   0  0  0  0  0  0  0  0  0  0  0  0
    2.7351   -0.8553    0.0000 C   0  0  0  0  0  0  0  0  0  0  0  0
    2.7351   -1.6803    0.0000 N   0  0  0  0  0  0  0  0  0  0  0  0
    2.0207   -2.0928    0.0000 C   0  0  0  0  0  0  0  0  0  0  0  0
    2.0207   -2.9178    0.0000 H   0  0  0  0  0  0  0  0  0  0  0  0
    0.5711   -3.7808    0.0000 H   0  0  0  0  0  0  0  0  0  0  0  0
    2.7861   -4.7835    0.0000 H   0  0  0  0  0  0  0  0  0  0  0  0
    2.5467   -4.0468    0.0000 H   0  0  0  0  0  0  0  0  0  0  0  0
    1.8335   -6.2419    0.0000 H   0  0  0  0  0  0  0  0  0  0  0  0
    2.4602   -5.7865    0.0000 H   0  0  0  0  0  0  0  0  0  0  0  0
    0.1522   -5.7865    0.0000 H   0  0  0  0  0  0  0  0  0  0  0  0
    0.7789   -6.2419    0.0000 H   0  0  0  0  0  0  0  0  0  0  0  0
   -0.1731   -4.4935    0.0000 H   0  0  0  0  0  0  0  0  0  0  0  0
   -0.0551   -5.0866    0.0000 H   0  0  0  0  0  0  0  0  0  0  0  0
   -0.1228   -2.5053    0.0000 H   0  0  0  0  0  0  0  0  0  0  0  0
   -2.4769   -2.8229    0.0000 H   0  0  0  0  0  0  0  0  0  0  0  0
   -2.7805    0.0653    0.0000 H   0  0  0  0  0  0  0  0  0  0  0  0
   -1.7493   -0.0424    0.0000 H   0  0  0  0  0  0  0  0  0  0  0  0
   -0.8551   -1.2676    0.0000 H   0  0  0  0  0  0  0  0  0  0  0  0
   -1.5517    0.7947    0.0000 H   0  0  0  0  0  0  0  0  0  0  0  0
    1.3062    0.7947    0.0000 H   0  0  0  0  0  0  0  0  0  0  0  0
    0.5917   -1.2678    0.0000 H   0  0  0  0  0  0  0  0  0  0  0  0
   -1.5517    1.6197    0.0000 H   0  0  0  0  0  0  0  0  0  0  0  0
   -1.5517    3.2697    0.0000 H   0  0  0  0  0  0  0  0  0  0  0  0
   -0.1228    4.0947    0.0000 H   0  0  0  0  0  0  0  0  0  0  0  0
    1.3062    3.2697    0.0000 H   0  0  0  0  0  0  0  0  0  0  0  0
    1.3062    1.6197    0.0000 H   0  0  0  0  0  0  0  0  0  0  0  0
    1.3062   -0.0303    0.0000 H   0  0  0  0  0  0  0  0  0  0  0  0
    2.4332    0.2716    0.0000 H   0  0  0  0  0  0  0  0  0  0  0  0
    3.4496   -0.4428    0.0000 H   0  0  0  0  0  0  0  0  0  0  0  0
    1.3062   -2.5053    0.0000 H   0  0  0  0  0  0  0  0  0  0  0  0
  1  2  2  0  0  0  0
  2  3  1  0  0  0  0
  3  4  1  0  0  0  0
  4  5  1  0  0  0  0
  5  6  1  0  0  0  0
  6  7  1  0  0  0  0
  7  8  1  0  0  0  0
  2  9  1  0  0  0  0
  9 10  1  0  0  0  0
 10 11  1  0  0  0  0
 11 12  2  0  0  0  0
 11 13  1  0  0  0  0
 13 14  4  0  0  0  0
 14 15  4  0  0  0  0
 15 16  4  0  0  0  0
 16 17  4  0  0  0  0
 10 18  1  0  0  0  0
 18 19  4  0  0  0  0
 19 20  4  0  0  0  0
 20 21  4  0  0  0  0
 21 22  4  0  0  0  0
 22 23  4  0  0  0  0
 21 24  1  0  0  0  0
 24 25  4  0  0  0  0
 25 26  4  0  0  0  0
 26 27  4  0  0  0  0
 27 28  4  0  0  0  0
 28 29  4  0  0  0  0
  9 30  1  0  0  0  0
 30 31  4  0  0  0  0
 31 32  4  0  0  0  0
 32 33  4  0  0  0  0
 33 34  4  0  0  0  0
 34 35  4  0  0  0  0
  8  4  1  0  0  0  0
 17 13  4  0  0  0  0
 23 18  4  0  0  0  0
 29 24  4  0  0  0  0
 35 30  4  0  0  0  0
  3 36  1  0  0  0  0
  4 37  1  0  0  0  0
  5 38  1  0  0  0  0
  5 39  1  0  0  0  0
  6 40  1  0  0  0  0
  6 41  1  0  0  0  0
  7 42  1  0  0  0  0
  7 43  1  0  0  0  0
  8 44  1  0  0  0  0
  8 45  1  0  0  0  0
  9 46  1  0  0  0  0
 14 47  1  0  0  0  0
 16 48  1  0  0  0  0
 17 49  1  0  0  0  0
 19 50  1  0  0  0  0
 20 51  1  0  0  0  0
 22 52  1  0  0  0  0
 23 53  1  0  0  0  0
 25 54  1  0  0  0  0
 26 55  1  0  0  0  0
 27 56  1  0  0  0  0
 28 57  1  0  0  0  0
 29 58  1  0  0  0  0
 31 59  1  0  0  0  0
 32 60  1  0  0  0  0
 33 61  1  0  0  0  0
 35 62  1  0  0  0  0
M  END
> <Compound>
33a

>  <SMILE>
O=C(NC1CCCC1)C(N(C(=O)C1=CNC=N1)C1=CC=C(C=C1)C1=CC=CC=C1)C1=CC=CN=C1

> <Relation>
=

>  <IC50 (??M)>
7.27

> <Bond Type>
Non-covalent

> <References>
10.1101/2020.12.19.423537

> <Year>
2020

> <StandardizerResult>
Remove Explicit Hydrogens (ID: RemoveExplicitH)
Dearomatize (ID: Dearomatize)
Clear Stereo (ID: ClearStereo)
Wedge Clean (ID: WedgeClean)
Mesomerize (ID: Mesomerize)
Tautomerize (ID: Tautomerize)
Aromatize (ID: Aromatize)
Add Explicit Hydrogens (ID: AddExplicitH)
Neutralize (ID: Neutralize)
Clean 2D (ID: Clean2D)

> <Molecule (InChiKey)>
LLIAUWAYLJLCJT-UHFFFAOYSA-N

> <Outcome>
Active

> <IC50 (uM)>
7.27

> <SMILES>
O=C(NC1CCCC1)C(N(C(=O)C1=CNC=N1)C1=CC=C(C=C1)C1=CC=CC=C1)C1=CC=CN=C1

$$$$

  Mrv2016 04192109512D          

 63 67  0  0  0  0            999 V2000
    4.9597    2.2544    0.0000 N   0  0  0  0  0  0  0  0  0  0  0  0
    4.2452    1.8419    0.0000 C   0  0  0  0  0  0  0  0  0  0  0  0
    4.2452    1.0169    0.0000 C   0  0  0  0  0  0  0  0  0  0  0  0
    4.9597    0.6044    0.0000 C   0  0  0  0  0  0  0  0  0  0  0  0
    4.9597   -0.2206    0.0000 C   0  0  0  0  0  0  0  0  0  0  0  0
    4.2452   -0.6331    0.0000 C   0  0  0  0  0  0  0  0  0  0  0  0
    3.5307   -0.2206    0.0000 C   0  0  0  0  0  0  0  0  0  0  0  0
    3.5307    0.6044    0.0000 C   0  0  0  0  0  0  0  0  0  0  0  0
    2.8163    1.0169    0.0000 C   0  0  0  0  0  0  0  0  0  0  0  0
    2.1018    0.6044    0.0000 C   0  0  0  0  0  0  0  0  0  0  0  0
    1.3873    1.0169    0.0000 N   0  0  0  0  0  0  0  0  0  0  0  0
    0.6729    0.6044    0.0000 C   0  0  0  0  0  0  0  0  0  0  0  0
    0.6729   -0.2206    0.0000 C   0  0  0  0  0  0  0  0  0  0  0  0
   -0.0416   -0.6331    0.0000 N   0  0  0  0  0  0  0  0  0  0  0  0
   -0.7561   -0.2206    0.0000 C   0  0  0  0  0  0  0  0  0  0  0  0
   -0.7561    0.6044    0.0000 C   0  0  0  0  0  0  0  0  0  0  0  0
   -0.0416    1.0169    0.0000 C   0  0  0  0  0  0  0  0  0  0  0  0
    1.3873    1.8419    0.0000 C   0  0  0  0  0  0  0  0  0  0  0  0
    0.6729    2.2544    0.0000 O   0  0  0  0  0  0  0  0  0  0  0  0
    2.1018    2.2544    0.0000 C   0  0  0  0  0  0  0  0  0  0  0  0
    2.8163    1.8419    0.0000 C   0  0  0  0  0  0  0  0  0  0  0  0
    2.1018    3.0794    0.0000 C   0  0  0  0  0  0  0  0  0  0  0  0
    1.3873    3.4919    0.0000 C   0  0  0  0  0  0  0  0  0  0  0  0
    1.3873    4.3169    0.0000 C   0  0  0  0  0  0  0  0  0  0  0  0
    0.6729    4.7294    0.0000 O   0  0  0  0  0  0  0  0  0  0  0  0
    0.6729    5.5544    0.0000 C   0  0  0  0  0  0  0  0  0  0  0  0
   -0.0416    5.9669    0.0000 C   0  0  0  0  0  0  0  0  0  0  0  0
   -0.0416    6.7919    0.0000 C   0  0  0  0  0  0  0  0  0  0  0  0
   -0.7561    7.2044    0.0000 C   0  0  0  0  0  0  0  0  0  0  0  0
   -0.7561    8.0294    0.0000 C   0  0  0  0  0  0  0  0  0  0  0  0
   -0.0416    8.4419    0.0000 C   0  0  0  0  0  0  0  0  0  0  0  0
    0.6729    8.0294    0.0000 C   0  0  0  0  0  0  0  0  0  0  0  0
    0.6729    7.2044    0.0000 C   0  0  0  0  0  0  0  0  0  0  0  0
    2.1018    4.7294    0.0000 C   0  0  0  0  0  0  0  0  0  0  0  0
    2.8163    4.3169    0.0000 C   0  0  0  0  0  0  0  0  0  0  0  0
    3.5307    4.7294    0.0000 Cl  0  0  0  0  0  0  0  0  0  0  0  0
    2.8163    3.4919    0.0000 C   0  0  0  0  0  0  0  0  0  0  0  0
    5.6742    1.8419    0.0000 H   0  0  0  0  0  0  0  0  0  0  0  0
    4.9597    3.0794    0.0000 H   0  0  0  0  0  0  0  0  0  0  0  0
    3.7919    2.5312    0.0000 H   0  0  0  0  0  0  0  0  0  0  0  0
    3.4216    1.8899    0.0000 H   0  0  0  0  0  0  0  0  0  0  0  0
    5.6742    1.0169    0.0000 H   0  0  0  0  0  0  0  0  0  0  0  0
    5.6742   -0.6331    0.0000 H   0  0  0  0  0  0  0  0  0  0  0  0
    4.2452   -1.4581    0.0000 H   0  0  0  0  0  0  0  0  0  0  0  0
    2.8163   -0.6331    0.0000 H   0  0  0  0  0  0  0  0  0  0  0  0
    2.1018   -0.2206    0.0000 H   0  0  0  0  0  0  0  0  0  0  0  0
    1.3873   -0.6331    0.0000 H   0  0  0  0  0  0  0  0  0  0  0  0
   -1.4706   -0.6331    0.0000 H   0  0  0  0  0  0  0  0  0  0  0  0
   -1.4706    1.0169    0.0000 H   0  0  0  0  0  0  0  0  0  0  0  0
   -0.0416    1.8419    0.0000 H   0  0  0  0  0  0  0  0  0  0  0  0
    2.9981    2.6466    0.0000 H   0  0  0  0  0  0  0  0  0  0  0  0
    0.6729    3.0794    0.0000 H   0  0  0  0  0  0  0  0  0  0  0  0
    1.4965    5.6024    0.0000 H   0  0  0  0  0  0  0  0  0  0  0  0
    1.1262    6.2437    0.0000 H   0  0  0  0  0  0  0  0  0  0  0  0
   -0.8652    5.9189    0.0000 H   0  0  0  0  0  0  0  0  0  0  0  0
   -0.4950    5.2776    0.0000 H   0  0  0  0  0  0  0  0  0  0  0  0
   -1.4706    6.7919    0.0000 H   0  0  0  0  0  0  0  0  0  0  0  0
   -1.4706    8.4419    0.0000 H   0  0  0  0  0  0  0  0  0  0  0  0
   -0.0416    9.2669    0.0000 H   0  0  0  0  0  0  0  0  0  0  0  0
    1.3873    8.4419    0.0000 H   0  0  0  0  0  0  0  0  0  0  0  0
    1.3873    6.7919    0.0000 H   0  0  0  0  0  0  0  0  0  0  0  0
    2.1018    5.5544    0.0000 H   0  0  0  0  0  0  0  0  0  0  0  0
    3.6366    3.5792    0.0000 H   0  0  0  0  0  0  0  0  0  0  0  0
  1  2  1  0  0  0  0
  2  3  1  0  0  0  0
  3  4  4  0  0  0  0
  4  5  4  0  0  0  0
  5  6  4  0  0  0  0
  6  7  4  0  0  0  0
  7  8  4  0  0  0  0
  8  9  1  0  0  0  0
  9 10  2  0  0  0  0
 10 11  1  0  0  0  0
 11 12  1  0  0  0  0
 12 13  4  0  0  0  0
 13 14  4  0  0  0  0
 14 15  4  0  0  0  0
 15 16  4  0  0  0  0
 16 17  4  0  0  0  0
 11 18  1  0  0  0  0
 18 19  2  0  0  0  0
 18 20  1  0  0  0  0
 20 21  2  0  0  0  0
 20 22  1  0  0  0  0
 22 23  4  0  0  0  0
 23 24  4  0  0  0  0
 24 25  1  0  0  0  0
 25 26  1  0  0  0  0
 26 27  1  0  0  0  0
 27 28  1  0  0  0  0
 28 29  4  0  0  0  0
 29 30  4  0  0  0  0
 30 31  4  0  0  0  0
 31 32  4  0  0  0  0
 32 33  4  0  0  0  0
 24 34  4  0  0  0  0
 34 35  4  0  0  0  0
 35 36  1  0  0  0  0
 35 37  4  0  0  0  0
  8  3  4  0  0  0  0
 21  9  1  0  0  0  0
 37 22  4  0  0  0  0
 17 12  4  0  0  0  0
 33 28  4  0  0  0  0
  1 38  1  0  0  0  0
  1 39  1  0  0  0  0
  2 40  1  0  0  0  0
  2 41  1  0  0  0  0
  4 42  1  0  0  0  0
  5 43  1  0  0  0  0
  6 44  1  0  0  0  0
  7 45  1  0  0  0  0
 10 46  1  0  0  0  0
 13 47  1  0  0  0  0
 15 48  1  0  0  0  0
 16 49  1  0  0  0  0
 17 50  1  0  0  0  0
 21 51  1  0  0  0  0
 23 52  1  0  0  0  0
 26 53  1  0  0  0  0
 26 54  1  0  0  0  0
 27 55  1  0  0  0  0
 27 56  1  0  0  0  0
 29 57  1  0  0  0  0
 30 58  1  0  0  0  0
 31 59  1  0  0  0  0
 32 60  1  0  0  0  0
 33 61  1  0  0  0  0
 34 62  1  0  0  0  0
 37 63  1  0  0  0  0
M  END
> <Compound>
8

>  <SMILE>
NCC1=CC=CC=C1C1=CN(C2=CN=CC=C2)C(=O)C(=C1)C1=CC(OCCC2=CC=CC=C2)=CC(Cl)=C1

> <Relation>
=

>  <IC50 (??M)>
0.51

> <Bond Type>
Non-covalent

> <References>
https://doi.org/10.1021/acscentsci.1c00039

> <Year>
2020

> <StandardizerResult>
Remove Explicit Hydrogens (ID: RemoveExplicitH)
Dearomatize (ID: Dearomatize)
Clear Stereo (ID: ClearStereo)
Wedge Clean (ID: WedgeClean)
Mesomerize (ID: Mesomerize)
Tautomerize (ID: Tautomerize)
Aromatize (ID: Aromatize)
Add Explicit Hydrogens (ID: AddExplicitH)
Neutralize (ID: Neutralize)
Clean 2D (ID: Clean2D)

> <Molecule (InChiKey)>
LMCCRPKQBAHCBD-UHFFFAOYSA-N

> <Outcome>
Active

> <IC50 (uM)>
0.51

> <SMILES>
NCC1=CC=CC=C1C1=CN(C2=CN=CC=C2)C(=O)C(=C1)C1=CC(OCCC2=CC=CC=C2)=CC(Cl)=C1

$$$$

  Mrv2016 04192109512D          

 62 66  0  0  0  0            999 V2000
   -0.0847   -3.3148    0.0000 O   0  0  0  0  0  0  0  0  0  0  0  0
    0.6298   -2.9023    0.0000 C   0  0  0  0  0  0  0  0  0  0  0  0
    1.3442   -3.3148    0.0000 N   0  0  0  0  0  0  0  0  0  0  0  0
    1.3442   -4.1398    0.0000 C   0  0  0  0  0  0  0  0  0  0  0  0
    2.0117   -4.6248    0.0000 C   0  0  0  0  0  0  0  0  0  0  0  0
    1.7567   -5.4094    0.0000 C   0  0  0  0  0  0  0  0  0  0  0  0
    0.9317   -5.4094    0.0000 C   0  0  0  0  0  0  0  0  0  0  0  0
    0.6768   -4.6248    0.0000 C   0  0  0  0  0  0  0  0  0  0  0  0
    0.6298   -2.0773    0.0000 C   0  0  0  0  0  0  0  0  0  0  0  0
   -0.0847   -1.6648    0.0000 N   0  0  0  0  0  0  0  0  0  0  0  0
   -0.7992   -2.0773    0.0000 C   0  0  0  0  0  0  0  0  0  0  0  0
   -0.7992   -2.9023    0.0000 O   0  0  0  0  0  0  0  0  0  0  0  0
   -1.5137   -1.6648    0.0000 C   0  0  0  0  0  0  0  0  0  0  0  0
   -2.2673   -2.0004    0.0000 C   0  0  0  0  0  0  0  0  0  0  0  0
   -2.8194   -1.3873    0.0000 C   0  0  0  0  0  0  0  0  0  0  0  0
   -2.4069   -0.6728    0.0000 C   0  0  0  0  0  0  0  0  0  0  0  0
   -1.5999   -0.8444    0.0000 O   0  0  0  0  0  0  0  0  0  0  0  0
   -0.0847   -0.8398    0.0000 C   0  0  0  0  0  0  0  0  0  0  0  0
   -0.7992   -0.4273    0.0000 C   0  0  0  0  0  0  0  0  0  0  0  0
   -0.7992    0.3977    0.0000 C   0  0  0  0  0  0  0  0  0  0  0  0
   -0.0847    0.8102    0.0000 C   0  0  0  0  0  0  0  0  0  0  0  0
    0.6298    0.3977    0.0000 C   0  0  0  0  0  0  0  0  0  0  0  0
    0.6298   -0.4273    0.0000 C   0  0  0  0  0  0  0  0  0  0  0  0
   -0.0847    1.6352    0.0000 C   0  0  0  0  0  0  0  0  0  0  0  0
   -0.7992    2.0477    0.0000 C   0  0  0  0  0  0  0  0  0  0  0  0
   -0.7992    2.8727    0.0000 C   0  0  0  0  0  0  0  0  0  0  0  0
   -0.0847    3.2852    0.0000 C   0  0  0  0  0  0  0  0  0  0  0  0
    0.6298    2.8727    0.0000 C   0  0  0  0  0  0  0  0  0  0  0  0
    0.6298    2.0477    0.0000 C   0  0  0  0  0  0  0  0  0  0  0  0
    1.3442   -1.6648    0.0000 C   0  0  0  0  0  0  0  0  0  0  0  0
    1.3442   -0.8398    0.0000 C   0  0  0  0  0  0  0  0  0  0  0  0
    2.0587   -0.4273    0.0000 C   0  0  0  0  0  0  0  0  0  0  0  0
    2.7732   -0.8398    0.0000 C   0  0  0  0  0  0  0  0  0  0  0  0
    2.7732   -1.6648    0.0000 N   0  0  0  0  0  0  0  0  0  0  0  0
    2.0587   -2.0773    0.0000 C   0  0  0  0  0  0  0  0  0  0  0  0
    2.0587   -2.9023    0.0000 H   0  0  0  0  0  0  0  0  0  0  0  0
    0.6091   -3.7653    0.0000 H   0  0  0  0  0  0  0  0  0  0  0  0
    2.8241   -4.7680    0.0000 H   0  0  0  0  0  0  0  0  0  0  0  0
    2.5848   -4.0313    0.0000 H   0  0  0  0  0  0  0  0  0  0  0  0
    1.8715   -6.2264    0.0000 H   0  0  0  0  0  0  0  0  0  0  0  0
    2.4982   -5.7710    0.0000 H   0  0  0  0  0  0  0  0  0  0  0  0
    0.1902   -5.7710    0.0000 H   0  0  0  0  0  0  0  0  0  0  0  0
    0.8169   -6.2264    0.0000 H   0  0  0  0  0  0  0  0  0  0  0  0
   -0.1351   -4.4780    0.0000 H   0  0  0  0  0  0  0  0  0  0  0  0
   -0.0171   -5.0711    0.0000 H   0  0  0  0  0  0  0  0  0  0  0  0
   -0.0847   -2.4898    0.0000 H   0  0  0  0  0  0  0  0  0  0  0  0
   -2.4389   -2.8074    0.0000 H   0  0  0  0  0  0  0  0  0  0  0  0
   -3.6399   -1.4735    0.0000 H   0  0  0  0  0  0  0  0  0  0  0  0
   -2.7424    0.0808    0.0000 H   0  0  0  0  0  0  0  0  0  0  0  0
   -0.8171   -1.2521    0.0000 H   0  0  0  0  0  0  0  0  0  0  0  0
   -1.5137    0.8102    0.0000 H   0  0  0  0  0  0  0  0  0  0  0  0
    1.3442    0.8102    0.0000 H   0  0  0  0  0  0  0  0  0  0  0  0
    0.6298   -1.2523    0.0000 H   0  0  0  0  0  0  0  0  0  0  0  0
   -1.5137    1.6352    0.0000 H   0  0  0  0  0  0  0  0  0  0  0  0
   -1.5137    3.2852    0.0000 H   0  0  0  0  0  0  0  0  0  0  0  0
   -0.0847    4.1102    0.0000 H   0  0  0  0  0  0  0  0  0  0  0  0
    1.3442    3.2852    0.0000 H   0  0  0  0  0  0  0  0  0  0  0  0
    1.3442    1.6352    0.0000 H   0  0  0  0  0  0  0  0  0  0  0  0
    1.3442   -0.0148    0.0000 H   0  0  0  0  0  0  0  0  0  0  0  0
    2.4712    0.2871    0.0000 H   0  0  0  0  0  0  0  0  0  0  0  0
    3.4876   -0.4273    0.0000 H   0  0  0  0  0  0  0  0  0  0  0  0
    1.3442   -2.4898    0.0000 H   0  0  0  0  0  0  0  0  0  0  0  0
  1  2  2  0  0  0  0
  2  3  1  0  0  0  0
  3  4  1  0  0  0  0
  4  5  1  0  0  0  0
  5  6  1  0  0  0  0
  6  7  1  0  0  0  0
  7  8  1  0  0  0  0
  2  9  1  0  0  0  0
  9 10  1  0  0  0  0
 10 11  1  0  0  0  0
 11 12  2  0  0  0  0
 11 13  1  0  0  0  0
 13 14  4  0  0  0  0
 14 15  4  0  0  0  0
 15 16  4  0  0  0  0
 16 17  4  0  0  0  0
 10 18  1  0  0  0  0
 18 19  4  0  0  0  0
 19 20  4  0  0  0  0
 20 21  4  0  0  0  0
 21 22  4  0  0  0  0
 22 23  4  0  0  0  0
 21 24  1  0  0  0  0
 24 25  4  0  0  0  0
 25 26  4  0  0  0  0
 26 27  4  0  0  0  0
 27 28  4  0  0  0  0
 28 29  4  0  0  0  0
  9 30  1  0  0  0  0
 30 31  4  0  0  0  0
 31 32  4  0  0  0  0
 32 33  4  0  0  0  0
 33 34  4  0  0  0  0
 34 35  4  0  0  0  0
  8  4  1  0  0  0  0
 17 13  4  0  0  0  0
 23 18  4  0  0  0  0
 29 24  4  0  0  0  0
 35 30  4  0  0  0  0
  3 36  1  0  0  0  0
  4 37  1  0  0  0  0
  5 38  1  0  0  0  0
  5 39  1  0  0  0  0
  6 40  1  0  0  0  0
  6 41  1  0  0  0  0
  7 42  1  0  0  0  0
  7 43  1  0  0  0  0
  8 44  1  0  0  0  0
  8 45  1  0  0  0  0
  9 46  1  0  0  0  0
 14 47  1  0  0  0  0
 15 48  1  0  0  0  0
 16 49  1  0  0  0  0
 19 50  1  0  0  0  0
 20 51  1  0  0  0  0
 22 52  1  0  0  0  0
 23 53  1  0  0  0  0
 25 54  1  0  0  0  0
 26 55  1  0  0  0  0
 27 56  1  0  0  0  0
 28 57  1  0  0  0  0
 29 58  1  0  0  0  0
 31 59  1  0  0  0  0
 32 60  1  0  0  0  0
 33 61  1  0  0  0  0
 35 62  1  0  0  0  0
M  END
> <Compound>
32a

>  <SMILE>
O=C(NC1CCCC1)C(N(C(=O)C1=CC=CO1)C1=CC=C(C=C1)C1=CC=CC=C1)C1=CC=CN=C1

> <Relation>
=

>  <IC50 (??M)>
4.1

> <Bond Type>
Non-covalent

> <References>
10.1101/2020.12.19.423537

> <Year>
2020

> <StandardizerResult>
Remove Explicit Hydrogens (ID: RemoveExplicitH)
Dearomatize (ID: Dearomatize)
Clear Stereo (ID: ClearStereo)
Wedge Clean (ID: WedgeClean)
Mesomerize (ID: Mesomerize)
Tautomerize (ID: Tautomerize)
Aromatize (ID: Aromatize)
Add Explicit Hydrogens (ID: AddExplicitH)
Neutralize (ID: Neutralize)
Clean 2D (ID: Clean2D)

> <Molecule (InChiKey)>
LYHYGWZUSDXIHQ-UHFFFAOYSA-N

> <Outcome>
Active

> <IC50 (uM)>
4.1

> <SMILES>
O=C(NC1CCCC1)C(N(C(=O)C1=CC=CO1)C1=CC=C(C=C1)C1=CC=CC=C1)C1=CC=CN=C1

$$$$

  Mrv2016 04192109512D          

 52 56  0  0  0  0            999 V2000
   -3.9975   -0.4773    0.0000 Cl  0  0  0  0  0  0  0  0  0  0  0  0
   -3.2830   -0.8898    0.0000 C   0  0  0  0  0  0  0  0  0  0  0  0
   -2.5685   -0.4773    0.0000 C   0  0  0  0  0  0  0  0  0  0  0  0
   -1.8541   -0.8898    0.0000 C   0  0  0  0  0  0  0  0  0  0  0  0
   -1.8541   -1.7148    0.0000 C   0  0  0  0  0  0  0  0  0  0  0  0
   -2.5685   -2.1273    0.0000 C   0  0  0  0  0  0  0  0  0  0  0  0
   -2.5685   -2.9523    0.0000 O   0  0  0  0  0  0  0  0  0  0  0  0
   -3.2830   -3.3648    0.0000 C   0  0  0  0  0  0  0  0  0  0  0  0
   -3.2830   -4.1898    0.0000 C   0  0  0  0  0  0  0  0  0  0  0  0
   -2.8705   -4.9042    0.0000 C   0  0  0  0  0  0  0  0  0  0  0  0
   -3.6955   -4.9042    0.0000 C   0  0  0  0  0  0  0  0  0  0  0  0
   -3.2830   -1.7148    0.0000 C   0  0  0  0  0  0  0  0  0  0  0  0
   -1.1396   -0.4773    0.0000 C   0  0  0  0  0  0  0  0  0  0  0  0
   -1.1396    0.3477    0.0000 C   0  0  0  0  0  0  0  0  0  0  0  0
   -0.4251    0.7602    0.0000 C   0  0  0  0  0  0  0  0  0  0  0  0
    0.2894    0.3477    0.0000 C   0  0  0  0  0  0  0  0  0  0  0  0
    0.2894   -0.4773    0.0000 N   0  0  0  0  0  0  0  0  0  0  0  0
   -0.4251   -0.8898    0.0000 C   0  0  0  0  0  0  0  0  0  0  0  0
   -0.4251   -1.7148    0.0000 O   0  0  0  0  0  0  0  0  0  0  0  0
    1.0038   -0.8898    0.0000 C   0  0  0  0  0  0  0  0  0  0  0  0
    1.7183   -0.4773    0.0000 C   0  0  0  0  0  0  0  0  0  0  0  0
    2.4328   -0.8898    0.0000 N   0  0  0  0  0  0  0  0  0  0  0  0
    2.4328   -1.7148    0.0000 C   0  0  0  0  0  0  0  0  0  0  0  0
    1.7183   -2.1273    0.0000 C   0  0  0  0  0  0  0  0  0  0  0  0
    1.0038   -1.7148    0.0000 C   0  0  0  0  0  0  0  0  0  0  0  0
   -0.4251    1.5852    0.0000 C   0  0  0  0  0  0  0  0  0  0  0  0
   -1.1396    1.9977    0.0000 C   0  0  0  0  0  0  0  0  0  0  0  0
   -1.1396    2.8227    0.0000 N   0  0  0  0  0  0  0  0  0  0  0  0
   -0.4251    3.2352    0.0000 C   0  0  0  0  0  0  0  0  0  0  0  0
   -0.4251    4.0602    0.0000 O   0  0  0  0  0  0  0  0  0  0  0  0
    0.2894    2.8227    0.0000 N   0  0  0  0  0  0  0  0  0  0  0  0
    0.2894    1.9977    0.0000 C   0  0  0  0  0  0  0  0  0  0  0  0
    1.0038    1.5852    0.0000 O   0  0  0  0  0  0  0  0  0  0  0  0
   -2.5685    0.3477    0.0000 H   0  0  0  0  0  0  0  0  0  0  0  0
   -1.1396   -2.1273    0.0000 H   0  0  0  0  0  0  0  0  0  0  0  0
   -3.7363   -2.6755    0.0000 H   0  0  0  0  0  0  0  0  0  0  0  0
   -4.1066   -3.3168    0.0000 H   0  0  0  0  0  0  0  0  0  0  0  0
   -4.0799   -3.9762    0.0000 H   0  0  0  0  0  0  0  0  0  0  0  0
   -2.5002   -5.6415    0.0000 H   0  0  0  0  0  0  0  0  0  0  0  0
   -2.0469   -4.8563    0.0000 H   0  0  0  0  0  0  0  0  0  0  0  0
   -4.5191   -4.8563    0.0000 H   0  0  0  0  0  0  0  0  0  0  0  0
   -4.0658   -5.6415    0.0000 H   0  0  0  0  0  0  0  0  0  0  0  0
   -3.9975   -2.1273    0.0000 H   0  0  0  0  0  0  0  0  0  0  0  0
   -1.8541    0.7602    0.0000 H   0  0  0  0  0  0  0  0  0  0  0  0
    1.0038    0.7602    0.0000 H   0  0  0  0  0  0  0  0  0  0  0  0
    1.7183    0.3477    0.0000 H   0  0  0  0  0  0  0  0  0  0  0  0
    3.1472   -2.1273    0.0000 H   0  0  0  0  0  0  0  0  0  0  0  0
    1.7183   -2.9523    0.0000 H   0  0  0  0  0  0  0  0  0  0  0  0
    0.2894   -2.1273    0.0000 H   0  0  0  0  0  0  0  0  0  0  0  0
   -1.8541    1.5852    0.0000 H   0  0  0  0  0  0  0  0  0  0  0  0
   -1.8541    3.2352    0.0000 H   0  0  0  0  0  0  0  0  0  0  0  0
    1.0038    3.2352    0.0000 H   0  0  0  0  0  0  0  0  0  0  0  0
  1  2  1  0  0  0  0
  2  3  4  0  0  0  0
  3  4  4  0  0  0  0
  4  5  4  0  0  0  0
  5  6  4  0  0  0  0
  6  7  1  0  0  0  0
  7  8  1  0  0  0  0
  8  9  1  0  0  0  0
  9 10  1  0  0  0  0
 10 11  1  0  0  0  0
  6 12  4  0  0  0  0
  4 13  1  0  0  0  0
 13 14  2  0  0  0  0
 14 15  1  0  0  0  0
 15 16  2  0  0  0  0
 16 17  1  0  0  0  0
 17 18  1  0  0  0  0
 18 19  2  0  0  0  0
 17 20  1  0  0  0  0
 20 21  4  0  0  0  0
 21 22  4  0  0  0  0
 22 23  4  0  0  0  0
 23 24  4  0  0  0  0
 24 25  4  0  0  0  0
 15 26  1  0  0  0  0
 26 27  2  0  0  0  0
 27 28  1  0  0  0  0
 28 29  1  0  0  0  0
 29 30  2  0  0  0  0
 29 31  1  0  0  0  0
 31 32  1  0  0  0  0
 32 33  2  0  0  0  0
 12  2  4  0  0  0  0
 18 13  1  0  0  0  0
 25 20  4  0  0  0  0
 32 26  1  0  0  0  0
 11  9  1  0  0  0  0
  3 34  1  0  0  0  0
  5 35  1  0  0  0  0
  8 36  1  0  0  0  0
  8 37  1  0  0  0  0
  9 38  1  0  0  0  0
 10 39  1  0  0  0  0
 10 40  1  0  0  0  0
 11 41  1  0  0  0  0
 11 42  1  0  0  0  0
 12 43  1  0  0  0  0
 14 44  1  0  0  0  0
 16 45  1  0  0  0  0
 21 46  1  0  0  0  0
 23 47  1  0  0  0  0
 24 48  1  0  0  0  0
 25 49  1  0  0  0  0
 27 50  1  0  0  0  0
 28 51  1  0  0  0  0
 31 52  1  0  0  0  0
M  END
> <Compound>
24

>  <SMILE>
ClC1=CC(=CC(OCC2CC2)=C1)C1=CC(=CN(C1=O)C1=CN=CC=C1)C1=CNC(=O)NC1=O

> <Relation>
=

>  <IC50 (??M)>
0.037

> <Bond Type>
Non-covalent

> <References>
https://doi.org/10.1021/acscentsci.1c00039

> <Year>
2020

> <StandardizerResult>
Remove Explicit Hydrogens (ID: RemoveExplicitH)
Dearomatize (ID: Dearomatize)
Clear Stereo (ID: ClearStereo)
Wedge Clean (ID: WedgeClean)
Mesomerize (ID: Mesomerize)
Tautomerize (ID: Tautomerize)
Aromatize (ID: Aromatize)
Add Explicit Hydrogens (ID: AddExplicitH)
Neutralize (ID: Neutralize)
Clean 2D (ID: Clean2D)

> <Molecule (InChiKey)>
MAQWOCWKZDBXGP-UHFFFAOYSA-N

> <Outcome>
Active

> <IC50 (uM)>
0.037

> <SMILES>
ClC1=CC(=CC(OCC2CC2)=C1)C1=CC(=CN(C1=O)C1=CN=CC=C1)C1=CNC(=O)NC1=O

$$$$

  Mrv2016 04192109512D          

 64 68  0  0  0  0            999 V2000
   -3.3890   -2.6814    0.0000 C   0  0  0  0  0  0  0  0  0  0  0  0
   -2.5640   -2.6814    0.0000 C   0  0  0  0  0  0  0  0  0  0  0  0
   -2.1515   -1.9670    0.0000 N   0  0  0  0  0  0  0  0  0  0  0  0
   -1.3265   -1.9670    0.0000 C   0  0  0  0  0  0  0  0  0  0  0  0
   -0.9140   -2.6814    0.0000 O   0  0  0  0  0  0  0  0  0  0  0  0
   -0.9140   -1.2525    0.0000 C   0  0  0  0  0  0  0  0  0  0  0  0
   -0.0890   -1.2525    0.0000 N   0  0  0  0  0  0  0  0  0  0  0  0
    0.3235   -1.9670    0.0000 C   0  0  0  0  0  0  0  0  0  0  0  0
   -0.0890   -2.6814    0.0000 O   0  0  0  0  0  0  0  0  0  0  0  0
    1.1485   -1.9670    0.0000 C   0  0  0  0  0  0  0  0  0  0  0  0
    1.6334   -2.6344    0.0000 C   0  0  0  0  0  0  0  0  0  0  0  0
    2.4181   -2.3795    0.0000 N   0  0  0  0  0  0  0  0  0  0  0  0
    2.4181   -1.5545    0.0000 C   0  0  0  0  0  0  0  0  0  0  0  0
    1.6334   -1.2995    0.0000 N   0  0  0  0  0  0  0  0  0  0  0  0
    0.3235   -0.5380    0.0000 C   0  0  0  0  0  0  0  0  0  0  0  0
   -0.0890    0.1765    0.0000 C   0  0  0  0  0  0  0  0  0  0  0  0
    0.3235    0.8909    0.0000 C   0  0  0  0  0  0  0  0  0  0  0  0
    1.1485    0.8909    0.0000 C   0  0  0  0  0  0  0  0  0  0  0  0
    1.5610    0.1765    0.0000 C   0  0  0  0  0  0  0  0  0  0  0  0
    1.1485   -0.5380    0.0000 C   0  0  0  0  0  0  0  0  0  0  0  0
    1.5610    1.6054    0.0000 C   0  0  0  0  0  0  0  0  0  0  0  0
    1.1485    2.3199    0.0000 C   0  0  0  0  0  0  0  0  0  0  0  0
    1.5610    3.0343    0.0000 C   0  0  0  0  0  0  0  0  0  0  0  0
    2.3860    3.0343    0.0000 C   0  0  0  0  0  0  0  0  0  0  0  0
    2.7985    2.3199    0.0000 C   0  0  0  0  0  0  0  0  0  0  0  0
    2.3860    1.6054    0.0000 C   0  0  0  0  0  0  0  0  0  0  0  0
   -1.3265   -0.5380    0.0000 C   0  0  0  0  0  0  0  0  0  0  0  0
   -2.1515   -0.5380    0.0000 N   0  0  0  0  0  0  0  0  0  0  0  0
   -2.5640    0.1765    0.0000 C   0  0  0  0  0  0  0  0  0  0  0  0
   -2.1515    0.8909    0.0000 C   0  0  0  0  0  0  0  0  0  0  0  0
   -1.3265    0.8909    0.0000 N   0  0  0  0  0  0  0  0  0  0  0  0
   -0.9140    0.1765    0.0000 C   0  0  0  0  0  0  0  0  0  0  0  0
   -2.1515   -3.3959    0.0000 C   0  0  0  0  0  0  0  0  0  0  0  0
   -1.3265   -3.3959    0.0000 C   0  0  0  0  0  0  0  0  0  0  0  0
   -0.9140   -4.1104    0.0000 C   0  0  0  0  0  0  0  0  0  0  0  0
   -1.3265   -4.8248    0.0000 C   0  0  0  0  0  0  0  0  0  0  0  0
   -2.1515   -4.8248    0.0000 C   0  0  0  0  0  0  0  0  0  0  0  0
   -2.5640   -4.1104    0.0000 C   0  0  0  0  0  0  0  0  0  0  0  0
   -3.3890   -1.8564    0.0000 H   0  0  0  0  0  0  0  0  0  0  0  0
   -4.2140   -2.6814    0.0000 H   0  0  0  0  0  0  0  0  0  0  0  0
   -3.3890   -3.5064    0.0000 H   0  0  0  0  0  0  0  0  0  0  0  0
   -2.9765   -1.9670    0.0000 H   0  0  0  0  0  0  0  0  0  0  0  0
   -2.1515   -1.1420    0.0000 H   0  0  0  0  0  0  0  0  0  0  0  0
   -0.5015   -1.9670    0.0000 H   0  0  0  0  0  0  0  0  0  0  0  0
    1.3785   -3.4190    0.0000 H   0  0  0  0  0  0  0  0  0  0  0  0
    3.0855   -1.0695    0.0000 H   0  0  0  0  0  0  0  0  0  0  0  0
    2.1386   -0.6472    0.0000 H   0  0  0  0  0  0  0  0  0  0  0  0
   -0.5015   -0.5380    0.0000 H   0  0  0  0  0  0  0  0  0  0  0  0
   -0.0890    1.6054    0.0000 H   0  0  0  0  0  0  0  0  0  0  0  0
    2.3860    0.1765    0.0000 H   0  0  0  0  0  0  0  0  0  0  0  0
    0.7516   -1.2613    0.0000 H   0  0  0  0  0  0  0  0  0  0  0  0
    0.3235    2.3199    0.0000 H   0  0  0  0  0  0  0  0  0  0  0  0
    1.1485    3.7488    0.0000 H   0  0  0  0  0  0  0  0  0  0  0  0
    2.7985    3.7488    0.0000 H   0  0  0  0  0  0  0  0  0  0  0  0
    3.6235    2.3199    0.0000 H   0  0  0  0  0  0  0  0  0  0  0  0
    2.7985    0.8909    0.0000 H   0  0  0  0  0  0  0  0  0  0  0  0
   -3.3890    0.1765    0.0000 H   0  0  0  0  0  0  0  0  0  0  0  0
   -2.5640    1.6054    0.0000 H   0  0  0  0  0  0  0  0  0  0  0  0
   -1.7390    0.1765    0.0000 H   0  0  0  0  0  0  0  0  0  0  0  0
   -1.7390   -2.6814    0.0000 H   0  0  0  0  0  0  0  0  0  0  0  0
   -0.0890   -4.1104    0.0000 H   0  0  0  0  0  0  0  0  0  0  0  0
   -0.9140   -5.5393    0.0000 H   0  0  0  0  0  0  0  0  0  0  0  0
   -2.5640   -5.5393    0.0000 H   0  0  0  0  0  0  0  0  0  0  0  0
   -3.3890   -4.1104    0.0000 H   0  0  0  0  0  0  0  0  0  0  0  0
  2  1  1  0  0  0  0
  2  3  1  0  0  0  0
  3  4  1  0  0  0  0
  4  5  2  0  0  0  0
  4  6  1  0  0  0  0
  6  7  1  0  0  0  0
  7  8  1  0  0  0  0
  8  9  2  0  0  0  0
  8 10  1  0  0  0  0
 10 11  4  0  0  0  0
 11 12  4  0  0  0  0
 12 13  4  0  0  0  0
 13 14  4  0  0  0  0
  7 15  1  0  0  0  0
 15 16  4  0  0  0  0
 16 17  4  0  0  0  0
 17 18  4  0  0  0  0
 18 19  4  0  0  0  0
 19 20  4  0  0  0  0
 18 21  1  0  0  0  0
 21 22  4  0  0  0  0
 22 23  4  0  0  0  0
 23 24  4  0  0  0  0
 24 25  4  0  0  0  0
 25 26  4  0  0  0  0
  6 27  1  0  0  0  0
 27 28  4  0  0  0  0
 28 29  4  0  0  0  0
 29 30  4  0  0  0  0
 30 31  4  0  0  0  0
 31 32  4  0  0  0  0
  2 33  1  0  0  0  0
 33 34  4  0  0  0  0
 34 35  4  0  0  0  0
 35 36  4  0  0  0  0
 36 37  4  0  0  0  0
 37 38  4  0  0  0  0
 14 10  4  0  0  0  0
 20 15  4  0  0  0  0
 26 21  4  0  0  0  0
 32 27  4  0  0  0  0
 38 33  4  0  0  0  0
  1 39  1  0  0  0  0
  1 40  1  0  0  0  0
  1 41  1  0  0  0  0
  2 42  1  0  0  0  0
  3 43  1  0  0  0  0
  6 44  1  0  0  0  0
 11 45  1  0  0  0  0
 13 46  1  0  0  0  0
 14 47  1  0  0  0  0
 16 48  1  0  0  0  0
 17 49  1  0  0  0  0
 19 50  1  0  0  0  0
 20 51  1  0  0  0  0
 22 52  1  0  0  0  0
 23 53  1  0  0  0  0
 24 54  1  0  0  0  0
 25 55  1  0  0  0  0
 26 56  1  0  0  0  0
 29 57  1  0  0  0  0
 30 58  1  0  0  0  0
 32 59  1  0  0  0  0
 34 60  1  0  0  0  0
 35 61  1  0  0  0  0
 36 62  1  0  0  0  0
 37 63  1  0  0  0  0
 38 64  1  0  0  0  0
M  END
> <Compound>
37a

>  <SMILE>
C[C@H](NC(=O)C(N(C(=O)C1=CNC=N1)C1=CC=C(C=C1)C1=CC=CC=C1)C1=NC=CN=C1)C1=CC=CC=C1

> <Relation>
=

>  <IC50 (??M)>
0.67

> <Bond Type>
Non-covalent

> <References>
10.1101/2020.12.19.423537

> <Year>
2020

> <StandardizerResult>
Remove Explicit Hydrogens (ID: RemoveExplicitH)
Dearomatize (ID: Dearomatize)
Clear Stereo (ID: ClearStereo)
Wedge Clean (ID: WedgeClean)
Mesomerize (ID: Mesomerize)
Tautomerize (ID: Tautomerize)
Aromatize (ID: Aromatize)
Add Explicit Hydrogens (ID: AddExplicitH)
Neutralize (ID: Neutralize)
Clean 2D (ID: Clean2D)

> <Molecule (InChiKey)>
MEWSAFKJOGMCKZ-UHFFFAOYSA-N

> <Outcome>
Active

> <IC50 (uM)>
0.67

> <SMILES>
C[C@H](NC(=O)C(N(C(=O)C1=CNC=N1)C1=CC=C(C=C1)C1=CC=CC=C1)C1=NC=CN=C1)C1=CC=CC=C1

$$$$

  Mrv2016 04192109512D          

 68 72  0  0  0  0            999 V2000
   -0.8456   -2.9950    0.0000 O   0  0  0  0  0  0  0  0  0  0  0  0
   -1.1157   -3.7746    0.0000 C   0  0  0  0  0  0  0  0  0  0  0  0
   -1.9258   -3.9305    0.0000 N   0  0  0  0  0  0  0  0  0  0  0  0
   -2.4659   -3.3069    0.0000 C   0  0  0  0  0  0  0  0  0  0  0  0
   -3.2760   -3.4628    0.0000 C   0  0  0  0  0  0  0  0  0  0  0  0
   -3.8161   -2.8391    0.0000 C   0  0  0  0  0  0  0  0  0  0  0  0
   -4.6262   -2.9950    0.0000 C   0  0  0  0  0  0  0  0  0  0  0  0
   -4.8963   -3.7746    0.0000 C   0  0  0  0  0  0  0  0  0  0  0  0
   -5.7064   -3.9305    0.0000 C   0  0  0  0  0  0  0  0  0  0  0  0
   -6.2465   -3.3069    0.0000 C   0  0  0  0  0  0  0  0  0  0  0  0
   -5.9765   -2.5273    0.0000 C   0  0  0  0  0  0  0  0  0  0  0  0
   -5.1663   -2.3714    0.0000 C   0  0  0  0  0  0  0  0  0  0  0  0
   -0.5756   -4.3982    0.0000 C   0  0  0  0  0  0  0  0  0  0  0  0
    0.2346   -4.2423    0.0000 N   0  0  0  0  0  0  0  0  0  0  0  0
    0.5046   -3.4628    0.0000 C   0  0  0  0  0  0  0  0  0  0  0  0
   -0.0355   -2.8391    0.0000 O   0  0  0  0  0  0  0  0  0  0  0  0
    1.3147   -3.3069    0.0000 C   0  0  0  0  0  0  0  0  0  0  0  0
    1.6648   -2.5598    0.0000 C   0  0  0  0  0  0  0  0  0  0  0  0
    2.4835   -2.6619    0.0000 C   0  0  0  0  0  0  0  0  0  0  0  0
    2.6394   -3.4720    0.0000 C   0  0  0  0  0  0  0  0  0  0  0  0
    1.9171   -3.8706    0.0000 O   0  0  0  0  0  0  0  0  0  0  0  0
    0.7747   -4.8660    0.0000 C   0  0  0  0  0  0  0  0  0  0  0  0
    1.5848   -4.7101    0.0000 C   0  0  0  0  0  0  0  0  0  0  0  0
    2.1249   -5.3337    0.0000 C   0  0  0  0  0  0  0  0  0  0  0  0
    1.8548   -6.1133    0.0000 C   0  0  0  0  0  0  0  0  0  0  0  0
    1.0447   -6.2692    0.0000 C   0  0  0  0  0  0  0  0  0  0  0  0
    0.5046   -5.6455    0.0000 C   0  0  0  0  0  0  0  0  0  0  0  0
    2.3949   -6.7369    0.0000 C   0  0  0  0  0  0  0  0  0  0  0  0
    3.2051   -6.5810    0.0000 C   0  0  0  0  0  0  0  0  0  0  0  0
    3.7452   -7.2046    0.0000 C   0  0  0  0  0  0  0  0  0  0  0  0
    3.4751   -7.9842    0.0000 C   0  0  0  0  0  0  0  0  0  0  0  0
    2.6650   -8.1401    0.0000 C   0  0  0  0  0  0  0  0  0  0  0  0
    2.1249   -7.5164    0.0000 C   0  0  0  0  0  0  0  0  0  0  0  0
   -0.8456   -5.1778    0.0000 C   0  0  0  0  0  0  0  0  0  0  0  0
   -0.3055   -5.8014    0.0000 C   0  0  0  0  0  0  0  0  0  0  0  0
   -0.5756   -6.5810    0.0000 C   0  0  0  0  0  0  0  0  0  0  0  0
   -1.3857   -6.7369    0.0000 C   0  0  0  0  0  0  0  0  0  0  0  0
   -1.9258   -6.1133    0.0000 N   0  0  0  0  0  0  0  0  0  0  0  0
   -1.6557   -5.3337    0.0000 C   0  0  0  0  0  0  0  0  0  0  0  0
   -2.1958   -4.7101    0.0000 H   0  0  0  0  0  0  0  0  0  0  0  0
   -1.8747   -2.7314    0.0000 H   0  0  0  0  0  0  0  0  0  0  0  0
   -2.5744   -2.4890    0.0000 H   0  0  0  0  0  0  0  0  0  0  0  0
   -3.8672   -4.0382    0.0000 H   0  0  0  0  0  0  0  0  0  0  0  0
   -3.1675   -4.2806    0.0000 H   0  0  0  0  0  0  0  0  0  0  0  0
   -3.2249   -2.2637    0.0000 H   0  0  0  0  0  0  0  0  0  0  0  0
   -3.9246   -2.0213    0.0000 H   0  0  0  0  0  0  0  0  0  0  0  0
   -4.3562   -4.3982    0.0000 H   0  0  0  0  0  0  0  0  0  0  0  0
   -5.9765   -4.7101    0.0000 H   0  0  0  0  0  0  0  0  0  0  0  0
   -7.0566   -3.4628    0.0000 H   0  0  0  0  0  0  0  0  0  0  0  0
   -6.5165   -1.9037    0.0000 H   0  0  0  0  0  0  0  0  0  0  0  0
   -4.8963   -1.5919    0.0000 H   0  0  0  0  0  0  0  0  0  0  0  0
   -0.3055   -3.6187    0.0000 H   0  0  0  0  0  0  0  0  0  0  0  0
    1.2662   -1.8375    0.0000 H   0  0  0  0  0  0  0  0  0  0  0  0
    3.0472   -2.0596    0.0000 H   0  0  0  0  0  0  0  0  0  0  0  0
    3.3864   -3.8221    0.0000 H   0  0  0  0  0  0  0  0  0  0  0  0
    1.0584   -4.0748    0.0000 H   0  0  0  0  0  0  0  0  0  0  0  0
    2.9350   -5.1778    0.0000 H   0  0  0  0  0  0  0  0  0  0  0  0
    0.7747   -7.0487    0.0000 H   0  0  0  0  0  0  0  0  0  0  0  0
   -0.0355   -5.0219    0.0000 H   0  0  0  0  0  0  0  0  0  0  0  0
    3.4751   -5.8014    0.0000 H   0  0  0  0  0  0  0  0  0  0  0  0
    4.5553   -7.0487    0.0000 H   0  0  0  0  0  0  0  0  0  0  0  0
    4.0152   -8.6078    0.0000 H   0  0  0  0  0  0  0  0  0  0  0  0
    2.3949   -8.9196    0.0000 H   0  0  0  0  0  0  0  0  0  0  0  0
    1.3147   -7.6724    0.0000 H   0  0  0  0  0  0  0  0  0  0  0  0
    0.2346   -6.4251    0.0000 H   0  0  0  0  0  0  0  0  0  0  0  0
   -0.4197   -7.3911    0.0000 H   0  0  0  0  0  0  0  0  0  0  0  0
   -1.6557   -7.5164    0.0000 H   0  0  0  0  0  0  0  0  0  0  0  0
   -1.3857   -4.5541    0.0000 H   0  0  0  0  0  0  0  0  0  0  0  0
  1  2  2  0  0  0  0
  2  3  1  0  0  0  0
  3  4  1  0  0  0  0
  4  5  1  0  0  0  0
  5  6  1  0  0  0  0
  6  7  1  0  0  0  0
  7  8  4  0  0  0  0
  8  9  4  0  0  0  0
  9 10  4  0  0  0  0
 10 11  4  0  0  0  0
 11 12  4  0  0  0  0
  2 13  1  0  0  0  0
 13 14  1  0  0  0  0
 14 15  1  0  0  0  0
 15 16  2  0  0  0  0
 15 17  1  0  0  0  0
 17 18  4  0  0  0  0
 18 19  4  0  0  0  0
 19 20  4  0  0  0  0
 20 21  4  0  0  0  0
 14 22  1  0  0  0  0
 22 23  4  0  0  0  0
 23 24  4  0  0  0  0
 24 25  4  0  0  0  0
 25 26  4  0  0  0  0
 26 27  4  0  0  0  0
 25 28  1  0  0  0  0
 28 29  4  0  0  0  0
 29 30  4  0  0  0  0
 30 31  4  0  0  0  0
 31 32  4  0  0  0  0
 32 33  4  0  0  0  0
 13 34  1  0  0  0  0
 34 35  4  0  0  0  0
 35 36  4  0  0  0  0
 36 37  4  0  0  0  0
 37 38  4  0  0  0  0
 38 39  4  0  0  0  0
 12  7  4  0  0  0  0
 21 17  4  0  0  0  0
 27 22  4  0  0  0  0
 33 28  4  0  0  0  0
 39 34  4  0  0  0  0
  3 40  1  0  0  0  0
  4 41  1  0  0  0  0
  4 42  1  0  0  0  0
  5 43  1  0  0  0  0
  5 44  1  0  0  0  0
  6 45  1  0  0  0  0
  6 46  1  0  0  0  0
  8 47  1  0  0  0  0
  9 48  1  0  0  0  0
 10 49  1  0  0  0  0
 11 50  1  0  0  0  0
 12 51  1  0  0  0  0
 13 52  1  0  0  0  0
 18 53  1  0  0  0  0
 19 54  1  0  0  0  0
 20 55  1  0  0  0  0
 23 56  1  0  0  0  0
 24 57  1  0  0  0  0
 26 58  1  0  0  0  0
 27 59  1  0  0  0  0
 29 60  1  0  0  0  0
 30 61  1  0  0  0  0
 31 62  1  0  0  0  0
 32 63  1  0  0  0  0
 33 64  1  0  0  0  0
 35 65  1  0  0  0  0
 36 66  1  0  0  0  0
 37 67  1  0  0  0  0
 39 68  1  0  0  0  0
M  END
> <Compound>
40a

>  <SMILE>
O=C(NCCCC1=CC=CC=C1)C(N(C(=O)C1=CC=CO1)C1=CC=C(C=C1)C1=CC=CC=C1)C1=CC=CN=C1

> <Relation>
=

>  <IC50 (??M)>
1.05

> <Bond Type>
Non-covalent

> <References>
10.1101/2020.12.19.423537

> <Year>
2020

> <StandardizerResult>
Remove Explicit Hydrogens (ID: RemoveExplicitH)
Dearomatize (ID: Dearomatize)
Clear Stereo (ID: ClearStereo)
Wedge Clean (ID: WedgeClean)
Mesomerize (ID: Mesomerize)
Tautomerize (ID: Tautomerize)
Aromatize (ID: Aromatize)
Add Explicit Hydrogens (ID: AddExplicitH)
Neutralize (ID: Neutralize)
Clean 2D (ID: Clean2D)

> <Molecule (InChiKey)>
MYVUXRRMNMASTR-UHFFFAOYSA-N

> <Outcome>
Active

> <IC50 (uM)>
1.05

> <SMILES>
O=C(NCCCC1=CC=CC=C1)C(N(C(=O)C1=CC=CO1)C1=CC=C(C=C1)C1=CC=CC=C1)C1=CC=CN=C1

$$$$

  Mrv2016 04192109512D          

 55 59  0  0  0  0            999 V2000
   -1.9030    2.0949    0.0000 Cl  0  0  0  0  0  0  0  0  0  0  0  0
   -1.9030    1.2699    0.0000 C   0  0  0  0  0  0  0  0  0  0  0  0
   -1.1885    0.8574    0.0000 C   0  0  0  0  0  0  0  0  0  0  0  0
   -1.1885    0.0324    0.0000 C   0  0  0  0  0  0  0  0  0  0  0  0
   -1.9030   -0.3801    0.0000 C   0  0  0  0  0  0  0  0  0  0  0  0
   -2.6175    0.0324    0.0000 C   0  0  0  0  0  0  0  0  0  0  0  0
   -3.3319   -0.3801    0.0000 O   0  0  0  0  0  0  0  0  0  0  0  0
   -4.0464    0.0324    0.0000 C   0  0  0  0  0  0  0  0  0  0  0  0
   -4.7609   -0.3801    0.0000 C   0  0  0  0  0  0  0  0  0  0  0  0
   -4.7609   -1.2051    0.0000 C   0  0  0  0  0  0  0  0  0  0  0  0
   -4.0464   -1.6176    0.0000 Cl  0  0  0  0  0  0  0  0  0  0  0  0
   -5.4753   -1.6176    0.0000 C   0  0  0  0  0  0  0  0  0  0  0  0
   -6.1898   -1.2051    0.0000 C   0  0  0  0  0  0  0  0  0  0  0  0
   -6.1898   -0.3801    0.0000 C   0  0  0  0  0  0  0  0  0  0  0  0
   -5.4753    0.0324    0.0000 C   0  0  0  0  0  0  0  0  0  0  0  0
   -2.6175    0.8574    0.0000 C   0  0  0  0  0  0  0  0  0  0  0  0
   -0.4740   -0.3801    0.0000 C   0  0  0  0  0  0  0  0  0  0  0  0
    0.2404    0.0324    0.0000 C   0  0  0  0  0  0  0  0  0  0  0  0
    0.9549   -0.3801    0.0000 C   0  0  0  0  0  0  0  0  0  0  0  0
    0.9549   -1.2051    0.0000 C   0  0  0  0  0  0  0  0  0  0  0  0
    0.2404   -1.6176    0.0000 N   0  0  0  0  0  0  0  0  0  0  0  0
   -0.4740   -1.2051    0.0000 C   0  0  0  0  0  0  0  0  0  0  0  0
   -1.1885   -1.6176    0.0000 O   0  0  0  0  0  0  0  0  0  0  0  0
    0.2404   -2.4426    0.0000 C   0  0  0  0  0  0  0  0  0  0  0  0
    0.9549   -2.8551    0.0000 C   0  0  0  0  0  0  0  0  0  0  0  0
    0.9549   -3.6801    0.0000 N   0  0  0  0  0  0  0  0  0  0  0  0
    0.2404   -4.0926    0.0000 C   0  0  0  0  0  0  0  0  0  0  0  0
   -0.4740   -3.6801    0.0000 C   0  0  0  0  0  0  0  0  0  0  0  0
   -0.4740   -2.8551    0.0000 C   0  0  0  0  0  0  0  0  0  0  0  0
    1.6694    0.0324    0.0000 C   0  0  0  0  0  0  0  0  0  0  0  0
    1.6694    0.8574    0.0000 C   0  0  0  0  0  0  0  0  0  0  0  0
    2.3838    1.2699    0.0000 N   0  0  0  0  0  0  0  0  0  0  0  0
    3.0983    0.8574    0.0000 C   0  0  0  0  0  0  0  0  0  0  0  0
    3.8128    1.2699    0.0000 O   0  0  0  0  0  0  0  0  0  0  0  0
    3.0983    0.0324    0.0000 N   0  0  0  0  0  0  0  0  0  0  0  0
    2.3838   -0.3801    0.0000 C   0  0  0  0  0  0  0  0  0  0  0  0
    2.3838   -1.2051    0.0000 O   0  0  0  0  0  0  0  0  0  0  0  0
   -0.4740    1.2699    0.0000 H   0  0  0  0  0  0  0  0  0  0  0  0
   -1.9030   -1.2051    0.0000 H   0  0  0  0  0  0  0  0  0  0  0  0
   -3.6761    0.7696    0.0000 H   0  0  0  0  0  0  0  0  0  0  0  0
   -4.4167    0.7696    0.0000 H   0  0  0  0  0  0  0  0  0  0  0  0
   -5.4753   -2.4426    0.0000 H   0  0  0  0  0  0  0  0  0  0  0  0
   -6.9043   -1.6176    0.0000 H   0  0  0  0  0  0  0  0  0  0  0  0
   -6.9043    0.0324    0.0000 H   0  0  0  0  0  0  0  0  0  0  0  0
   -5.4753    0.8574    0.0000 H   0  0  0  0  0  0  0  0  0  0  0  0
   -3.3319    1.2699    0.0000 H   0  0  0  0  0  0  0  0  0  0  0  0
    0.2404    0.8574    0.0000 H   0  0  0  0  0  0  0  0  0  0  0  0
    1.6694   -1.6176    0.0000 H   0  0  0  0  0  0  0  0  0  0  0  0
    1.6694   -2.4426    0.0000 H   0  0  0  0  0  0  0  0  0  0  0  0
    0.2404   -4.9176    0.0000 H   0  0  0  0  0  0  0  0  0  0  0  0
   -1.1885   -4.0926    0.0000 H   0  0  0  0  0  0  0  0  0  0  0  0
   -1.1885   -2.4426    0.0000 H   0  0  0  0  0  0  0  0  0  0  0  0
    0.9549    1.2699    0.0000 H   0  0  0  0  0  0  0  0  0  0  0  0
    2.3838    2.0949    0.0000 H   0  0  0  0  0  0  0  0  0  0  0  0
    3.8128   -0.3801    0.0000 H   0  0  0  0  0  0  0  0  0  0  0  0
  1  2  1  0  0  0  0
  2  3  4  0  0  0  0
  3  4  4  0  0  0  0
  4  5  4  0  0  0  0
  5  6  4  0  0  0  0
  6  7  1  0  0  0  0
  7  8  1  0  0  0  0
  8  9  1  0  0  0  0
  9 10  4  0  0  0  0
 10 11  1  0  0  0  0
 10 12  4  0  0  0  0
 12 13  4  0  0  0  0
 13 14  4  0  0  0  0
 14 15  4  0  0  0  0
  6 16  4  0  0  0  0
  4 17  1  0  0  0  0
 17 18  2  0  0  0  0
 18 19  1  0  0  0  0
 19 20  2  0  0  0  0
 20 21  1  0  0  0  0
 21 22  1  0  0  0  0
 22 23  2  0  0  0  0
 21 24  1  0  0  0  0
 24 25  4  0  0  0  0
 25 26  4  0  0  0  0
 26 27  4  0  0  0  0
 27 28  4  0  0  0  0
 28 29  4  0  0  0  0
 19 30  1  0  0  0  0
 30 31  2  0  0  0  0
 31 32  1  0  0  0  0
 32 33  1  0  0  0  0
 33 34  2  0  0  0  0
 33 35  1  0  0  0  0
 35 36  1  0  0  0  0
 36 37  2  0  0  0  0
 16  2  4  0  0  0  0
 22 17  1  0  0  0  0
 29 24  4  0  0  0  0
 36 30  1  0  0  0  0
 15  9  4  0  0  0  0
  3 38  1  0  0  0  0
  5 39  1  0  0  0  0
  8 40  1  0  0  0  0
  8 41  1  0  0  0  0
 12 42  1  0  0  0  0
 13 43  1  0  0  0  0
 14 44  1  0  0  0  0
 15 45  1  0  0  0  0
 16 46  1  0  0  0  0
 18 47  1  0  0  0  0
 20 48  1  0  0  0  0
 25 49  1  0  0  0  0
 27 50  1  0  0  0  0
 28 51  1  0  0  0  0
 29 52  1  0  0  0  0
 31 53  1  0  0  0  0
 32 54  1  0  0  0  0
 35 55  1  0  0  0  0
M  END
> <Compound>
21

>  <SMILE>
ClC1=CC(=CC(OCC2=C(Cl)C=CC=C2)=C1)C1=CC(=CN(C1=O)C1=CN=CC=C1)C1=CNC(=O)NC1=O

> <Relation>
=

>  <IC50 (??M)>
0.018

> <Bond Type>
Non-covalent

> <References>
https://doi.org/10.1021/acscentsci.1c00039

> <Year>
2020

> <StandardizerResult>
Remove Explicit Hydrogens (ID: RemoveExplicitH)
Dearomatize (ID: Dearomatize)
Clear Stereo (ID: ClearStereo)
Wedge Clean (ID: WedgeClean)
Mesomerize (ID: Mesomerize)
Tautomerize (ID: Tautomerize)
Aromatize (ID: Aromatize)
Add Explicit Hydrogens (ID: AddExplicitH)
Neutralize (ID: Neutralize)
Clean 2D (ID: Clean2D)

> <Molecule (InChiKey)>
NFXZAFCZOMISJH-UHFFFAOYSA-N

> <Outcome>
Active

> <IC50 (uM)>
0.018

> <SMILES>
ClC1=CC(=CC(OCC2=C(Cl)C=CC=C2)=C1)C1=CC(=CN(C1=O)C1=CN=CC=C1)C1=CNC(=O)NC1=O

$$$$

  Mrv2016 04192109512D          

 56 59  0  0  0  0            999 V2000
    2.5726    5.6699    0.0000 C   0  0  0  0  0  0  0  0  0  0  0  0
    1.8581    5.2574    0.0000 C   0  0  0  0  0  0  0  0  0  0  0  0
    1.8581    4.4324    0.0000 C   0  0  0  0  0  0  0  0  0  0  0  0
    1.1437    4.0199    0.0000 O   0  0  0  0  0  0  0  0  0  0  0  0
    1.1437    3.1949    0.0000 C   0  0  0  0  0  0  0  0  0  0  0  0
    1.8581    2.7824    0.0000 C   0  0  0  0  0  0  0  0  0  0  0  0
    1.8581    1.9574    0.0000 C   0  0  0  0  0  0  0  0  0  0  0  0
    2.5726    1.5449    0.0000 Cl  0  0  0  0  0  0  0  0  0  0  0  0
    1.1437    1.5449    0.0000 C   0  0  0  0  0  0  0  0  0  0  0  0
    0.4292    1.9574    0.0000 C   0  0  0  0  0  0  0  0  0  0  0  0
    0.4292    2.7824    0.0000 C   0  0  0  0  0  0  0  0  0  0  0  0
   -0.2853    1.5449    0.0000 C   0  0  0  0  0  0  0  0  0  0  0  0
   -0.2853    0.7199    0.0000 C   0  0  0  0  0  0  0  0  0  0  0  0
   -0.9998    0.3074    0.0000 C   0  0  0  0  0  0  0  0  0  0  0  0
   -1.7142    0.7199    0.0000 C   0  0  0  0  0  0  0  0  0  0  0  0
   -1.7142    1.5449    0.0000 N   0  0  0  0  0  0  0  0  0  0  0  0
   -2.4287    1.9574    0.0000 C   0  0  0  0  0  0  0  0  0  0  0  0
   -3.1432    1.5449    0.0000 C   0  0  0  0  0  0  0  0  0  0  0  0
   -3.8576    1.9574    0.0000 N   0  0  0  0  0  0  0  0  0  0  0  0
   -3.8576    2.7824    0.0000 C   0  0  0  0  0  0  0  0  0  0  0  0
   -3.1432    3.1949    0.0000 C   0  0  0  0  0  0  0  0  0  0  0  0
   -2.4287    2.7824    0.0000 C   0  0  0  0  0  0  0  0  0  0  0  0
   -0.9998    1.9574    0.0000 C   0  0  0  0  0  0  0  0  0  0  0  0
   -0.9998    2.7824    0.0000 O   0  0  0  0  0  0  0  0  0  0  0  0
   -0.9998   -0.5176    0.0000 C   0  0  0  0  0  0  0  0  0  0  0  0
   -0.2853   -0.9301    0.0000 C   0  0  0  0  0  0  0  0  0  0  0  0
   -0.2853   -1.7551    0.0000 C   0  0  0  0  0  0  0  0  0  0  0  0
   -0.9998   -2.1676    0.0000 C   0  0  0  0  0  0  0  0  0  0  0  0
   -1.7142   -1.7551    0.0000 C   0  0  0  0  0  0  0  0  0  0  0  0
   -1.7142   -0.9301    0.0000 C   0  0  0  0  0  0  0  0  0  0  0  0
   -2.4287   -0.5176    0.0000 C   0  0  0  0  0  0  0  0  0  0  0  0
   -2.4287    0.3074    0.0000 N   0  0  0  0  0  0  0  0  0  0  0  0
    2.9851    4.9555    0.0000 H   0  0  0  0  0  0  0  0  0  0  0  0
    3.2871    6.0824    0.0000 H   0  0  0  0  0  0  0  0  0  0  0  0
    2.1601    6.3844    0.0000 H   0  0  0  0  0  0  0  0  0  0  0  0
    1.4048    5.9467    0.0000 H   0  0  0  0  0  0  0  0  0  0  0  0
    1.0345    5.3054    0.0000 H   0  0  0  0  0  0  0  0  0  0  0  0
    2.3115    3.7431    0.0000 H   0  0  0  0  0  0  0  0  0  0  0  0
    2.6817    4.3845    0.0000 H   0  0  0  0  0  0  0  0  0  0  0  0
    2.5726    3.1949    0.0000 H   0  0  0  0  0  0  0  0  0  0  0  0
    1.1437    0.7199    0.0000 H   0  0  0  0  0  0  0  0  0  0  0  0
   -0.2853    3.1949    0.0000 H   0  0  0  0  0  0  0  0  0  0  0  0
    0.4292    0.3074    0.0000 H   0  0  0  0  0  0  0  0  0  0  0  0
   -2.4287    1.1324    0.0000 H   0  0  0  0  0  0  0  0  0  0  0  0
   -3.5557    0.8305    0.0000 H   0  0  0  0  0  0  0  0  0  0  0  0
   -4.5721    3.1949    0.0000 H   0  0  0  0  0  0  0  0  0  0  0  0
   -3.1432    4.0199    0.0000 H   0  0  0  0  0  0  0  0  0  0  0  0
   -1.7142    3.1949    0.0000 H   0  0  0  0  0  0  0  0  0  0  0  0
    0.4292   -0.5176    0.0000 H   0  0  0  0  0  0  0  0  0  0  0  0
    0.4292   -2.1676    0.0000 H   0  0  0  0  0  0  0  0  0  0  0  0
   -0.9998   -2.9926    0.0000 H   0  0  0  0  0  0  0  0  0  0  0  0
   -2.4287   -2.1676    0.0000 H   0  0  0  0  0  0  0  0  0  0  0  0
   -3.2523   -0.5655    0.0000 H   0  0  0  0  0  0  0  0  0  0  0  0
   -2.8820   -1.2069    0.0000 H   0  0  0  0  0  0  0  0  0  0  0  0
   -3.2039    0.5896    0.0000 H   0  0  0  0  0  0  0  0  0  0  0  0
   -3.2039    0.0253    0.0000 H   0  0  0  0  0  0  0  0  0  0  0  0
  1  2  1  0  0  0  0
  2  3  1  0  0  0  0
  3  4  1  0  0  0  0
  4  5  1  0  0  0  0
  5  6  4  0  0  0  0
  6  7  4  0  0  0  0
  7  8  1  0  0  0  0
  7  9  4  0  0  0  0
  9 10  4  0  0  0  0
 10 11  4  0  0  0  0
 10 12  1  0  0  0  0
 12 13  2  0  0  0  0
 13 14  1  0  0  0  0
 14 15  2  0  0  0  0
 15 16  1  0  0  0  0
 16 17  1  0  0  0  0
 17 18  4  0  0  0  0
 18 19  4  0  0  0  0
 19 20  4  0  0  0  0
 20 21  4  0  0  0  0
 21 22  4  0  0  0  0
 16 23  1  0  0  0  0
 23 24  2  0  0  0  0
 14 25  1  0  0  0  0
 25 26  4  0  0  0  0
 26 27  4  0  0  0  0
 27 28  4  0  0  0  0
 28 29  4  0  0  0  0
 29 30  4  0  0  0  0
 30 31  1  0  0  0  0
 31 32  1  0  0  0  0
 11  5  4  0  0  0  0
 23 12  1  0  0  0  0
 30 25  4  0  0  0  0
 22 17  4  0  0  0  0
  1 33  1  0  0  0  0
  1 34  1  0  0  0  0
  1 35  1  0  0  0  0
  2 36  1  0  0  0  0
  2 37  1  0  0  0  0
  3 38  1  0  0  0  0
  3 39  1  0  0  0  0
  6 40  1  0  0  0  0
  9 41  1  0  0  0  0
 11 42  1  0  0  0  0
 13 43  1  0  0  0  0
 15 44  1  0  0  0  0
 18 45  1  0  0  0  0
 20 46  1  0  0  0  0
 21 47  1  0  0  0  0
 22 48  1  0  0  0  0
 26 49  1  0  0  0  0
 27 50  1  0  0  0  0
 28 51  1  0  0  0  0
 29 52  1  0  0  0  0
 31 53  1  0  0  0  0
 31 54  1  0  0  0  0
 32 55  1  0  0  0  0
 32 56  1  0  0  0  0
M  END
> <Compound>
5

>  <SMILE>
CCCOC1=CC(Cl)=CC(=C1)C1=CC(=CN(C2=CN=CC=C2)C1=O)C1=CC=CC=C1CN

> <Relation>
=

>  <IC50 (??M)>
0.14

> <Bond Type>
Non-covalent

> <References>
https://doi.org/10.1021/acscentsci.1c00039

> <Year>
2020

> <StandardizerResult>
Remove Explicit Hydrogens (ID: RemoveExplicitH)
Dearomatize (ID: Dearomatize)
Clear Stereo (ID: ClearStereo)
Wedge Clean (ID: WedgeClean)
Mesomerize (ID: Mesomerize)
Tautomerize (ID: Tautomerize)
Aromatize (ID: Aromatize)
Add Explicit Hydrogens (ID: AddExplicitH)
Neutralize (ID: Neutralize)
Clean 2D (ID: Clean2D)

> <Molecule (InChiKey)>
NJKDLXSXACBXFF-UHFFFAOYSA-N

> <Outcome>
Active

> <IC50 (uM)>
0.14

> <SMILES>
CCCOC1=CC(Cl)=CC(=C1)C1=CC(=CN(C2=CN=CC=C2)C1=O)C1=CC=CC=C1CN

$$$$

  Mrv2016 04192109512D          

 62 66  0  0  0  0            999 V2000
   -3.1422   -2.6949    0.0000 C   0  0  0  0  0  0  0  0  0  0  0  0
   -2.3172   -2.6949    0.0000 C   0  0  0  0  0  0  0  0  0  0  0  0
   -1.9047   -1.9804    0.0000 N   0  0  0  0  0  0  0  0  0  0  0  0
   -1.0797   -1.9804    0.0000 C   0  0  0  0  0  0  0  0  0  0  0  0
   -0.6672   -2.6949    0.0000 O   0  0  0  0  0  0  0  0  0  0  0  0
   -0.6672   -1.2659    0.0000 C   0  0  0  0  0  0  0  0  0  0  0  0
    0.1578   -1.2659    0.0000 N   0  0  0  0  0  0  0  0  0  0  0  0
    0.5703   -1.9804    0.0000 C   0  0  0  0  0  0  0  0  0  0  0  0
    0.1578   -2.6949    0.0000 O   0  0  0  0  0  0  0  0  0  0  0  0
    1.3953   -1.9804    0.0000 C   0  0  0  0  0  0  0  0  0  0  0  0
    1.8802   -2.6479    0.0000 C   0  0  0  0  0  0  0  0  0  0  0  0
    2.6648   -2.3929    0.0000 C   0  0  0  0  0  0  0  0  0  0  0  0
    2.6648   -1.5679    0.0000 C   0  0  0  0  0  0  0  0  0  0  0  0
    1.8802   -1.3130    0.0000 O   0  0  0  0  0  0  0  0  0  0  0  0
    0.5703   -0.5515    0.0000 C   0  0  0  0  0  0  0  0  0  0  0  0
    0.1578    0.1630    0.0000 C   0  0  0  0  0  0  0  0  0  0  0  0
    0.5703    0.8775    0.0000 C   0  0  0  0  0  0  0  0  0  0  0  0
    1.3953    0.8775    0.0000 C   0  0  0  0  0  0  0  0  0  0  0  0
    1.8078    0.1630    0.0000 C   0  0  0  0  0  0  0  0  0  0  0  0
    1.3953   -0.5515    0.0000 C   0  0  0  0  0  0  0  0  0  0  0  0
    1.8078    1.5919    0.0000 C   0  0  0  0  0  0  0  0  0  0  0  0
    1.4722    2.3456    0.0000 C   0  0  0  0  0  0  0  0  0  0  0  0
    2.0853    2.8976    0.0000 C   0  0  0  0  0  0  0  0  0  0  0  0
    2.7998    2.4851    0.0000 C   0  0  0  0  0  0  0  0  0  0  0  0
    2.6283    1.6782    0.0000 S   0  0  0  0  0  0  0  0  0  0  0  0
   -1.0797   -0.5515    0.0000 C   0  0  0  0  0  0  0  0  0  0  0  0
   -1.9047   -0.5515    0.0000 C   0  0  0  0  0  0  0  0  0  0  0  0
   -2.3172    0.1630    0.0000 C   0  0  0  0  0  0  0  0  0  0  0  0
   -1.9047    0.8775    0.0000 C   0  0  0  0  0  0  0  0  0  0  0  0
   -1.0797    0.8775    0.0000 N   0  0  0  0  0  0  0  0  0  0  0  0
   -0.6672    0.1630    0.0000 C   0  0  0  0  0  0  0  0  0  0  0  0
   -1.9047   -3.4094    0.0000 C   0  0  0  0  0  0  0  0  0  0  0  0
   -1.0797   -3.4094    0.0000 C   0  0  0  0  0  0  0  0  0  0  0  0
   -0.6672   -4.1238    0.0000 C   0  0  0  0  0  0  0  0  0  0  0  0
   -1.0797   -4.8383    0.0000 C   0  0  0  0  0  0  0  0  0  0  0  0
   -1.9047   -4.8383    0.0000 C   0  0  0  0  0  0  0  0  0  0  0  0
   -2.3172   -4.1238    0.0000 C   0  0  0  0  0  0  0  0  0  0  0  0
   -3.1422   -1.8699    0.0000 H   0  0  0  0  0  0  0  0  0  0  0  0
   -3.9672   -2.6949    0.0000 H   0  0  0  0  0  0  0  0  0  0  0  0
   -3.1422   -3.5199    0.0000 H   0  0  0  0  0  0  0  0  0  0  0  0
   -2.7297   -1.9804    0.0000 H   0  0  0  0  0  0  0  0  0  0  0  0
   -1.9047   -1.1554    0.0000 H   0  0  0  0  0  0  0  0  0  0  0  0
   -0.2547   -1.9804    0.0000 H   0  0  0  0  0  0  0  0  0  0  0  0
    1.6253   -3.4325    0.0000 H   0  0  0  0  0  0  0  0  0  0  0  0
    3.3323   -2.8778    0.0000 H   0  0  0  0  0  0  0  0  0  0  0  0
    3.3323   -1.0830    0.0000 H   0  0  0  0  0  0  0  0  0  0  0  0
   -0.2547   -0.5515    0.0000 H   0  0  0  0  0  0  0  0  0  0  0  0
    0.1578    1.5919    0.0000 H   0  0  0  0  0  0  0  0  0  0  0  0
    2.6328    0.1630    0.0000 H   0  0  0  0  0  0  0  0  0  0  0  0
    0.9984   -1.2747    0.0000 H   0  0  0  0  0  0  0  0  0  0  0  0
    0.6653    2.5171    0.0000 H   0  0  0  0  0  0  0  0  0  0  0  0
    1.9991    3.7181    0.0000 H   0  0  0  0  0  0  0  0  0  0  0  0
    3.5535    2.8207    0.0000 H   0  0  0  0  0  0  0  0  0  0  0  0
   -2.7016   -0.7650    0.0000 H   0  0  0  0  0  0  0  0  0  0  0  0
   -3.1422    0.1630    0.0000 H   0  0  0  0  0  0  0  0  0  0  0  0
   -2.3172    1.5919    0.0000 H   0  0  0  0  0  0  0  0  0  0  0  0
   -1.4922    0.1630    0.0000 H   0  0  0  0  0  0  0  0  0  0  0  0
   -1.4922   -2.6949    0.0000 H   0  0  0  0  0  0  0  0  0  0  0  0
    0.1578   -4.1238    0.0000 H   0  0  0  0  0  0  0  0  0  0  0  0
   -0.6672   -5.5528    0.0000 H   0  0  0  0  0  0  0  0  0  0  0  0
   -2.3172   -5.5528    0.0000 H   0  0  0  0  0  0  0  0  0  0  0  0
   -3.1422   -4.1238    0.0000 H   0  0  0  0  0  0  0  0  0  0  0  0
  2  1  1  0  0  0  0
  2  3  1  0  0  0  0
  3  4  1  0  0  0  0
  4  5  2  0  0  0  0
  4  6  1  0  0  0  0
  6  7  1  0  0  0  0
  7  8  1  0  0  0  0
  8  9  2  0  0  0  0
  8 10  1  0  0  0  0
 10 11  4  0  0  0  0
 11 12  4  0  0  0  0
 12 13  4  0  0  0  0
 13 14  4  0  0  0  0
  7 15  1  0  0  0  0
 15 16  4  0  0  0  0
 16 17  4  0  0  0  0
 17 18  4  0  0  0  0
 18 19  4  0  0  0  0
 19 20  4  0  0  0  0
 18 21  1  0  0  0  0
 21 22  4  0  0  0  0
 22 23  4  0  0  0  0
 23 24  4  0  0  0  0
 24 25  4  0  0  0  0
  6 26  1  0  0  0  0
 26 27  4  0  0  0  0
 27 28  4  0  0  0  0
 28 29  4  0  0  0  0
 29 30  4  0  0  0  0
 30 31  4  0  0  0  0
  2 32  1  0  0  0  0
 32 33  4  0  0  0  0
 33 34  4  0  0  0  0
 34 35  4  0  0  0  0
 35 36  4  0  0  0  0
 36 37  4  0  0  0  0
 14 10  4  0  0  0  0
 20 15  4  0  0  0  0
 25 21  4  0  0  0  0
 31 26  4  0  0  0  0
 37 32  4  0  0  0  0
  1 38  1  0  0  0  0
  1 39  1  0  0  0  0
  1 40  1  0  0  0  0
  2 41  1  0  0  0  0
  3 42  1  0  0  0  0
  6 43  1  0  0  0  0
 11 44  1  0  0  0  0
 12 45  1  0  0  0  0
 13 46  1  0  0  0  0
 16 47  1  0  0  0  0
 17 48  1  0  0  0  0
 19 49  1  0  0  0  0
 20 50  1  0  0  0  0
 22 51  1  0  0  0  0
 23 52  1  0  0  0  0
 24 53  1  0  0  0  0
 27 54  1  0  0  0  0
 28 55  1  0  0  0  0
 29 56  1  0  0  0  0
 31 57  1  0  0  0  0
 33 58  1  0  0  0  0
 34 59  1  0  0  0  0
 35 60  1  0  0  0  0
 36 61  1  0  0  0  0
 37 62  1  0  0  0  0
M  END
> <Compound>
19a

>  <SMILE>
C[C@H](NC(=O)C(N(C(=O)C1=CC=CO1)C1=CC=C(C=C1)C1=CC=CS1)C1=CC=CN=C1)C1=CC=CC=C1

> <Relation>
=

>  <IC50 (??M)>
0.56

> <Bond Type>
Non-covalent

> <References>
10.1101/2020.12.19.423537

> <Year>
2020

> <StandardizerResult>
Remove Explicit Hydrogens (ID: RemoveExplicitH)
Dearomatize (ID: Dearomatize)
Clear Stereo (ID: ClearStereo)
Wedge Clean (ID: WedgeClean)
Mesomerize (ID: Mesomerize)
Tautomerize (ID: Tautomerize)
Aromatize (ID: Aromatize)
Add Explicit Hydrogens (ID: AddExplicitH)
Neutralize (ID: Neutralize)
Clean 2D (ID: Clean2D)

> <Molecule (InChiKey)>
NJXPUSRCRCOWEQ-UHFFFAOYSA-N

> <Outcome>
Active

> <IC50 (uM)>
0.56

> <SMILES>
C[C@H](NC(=O)C(N(C(=O)C1=CC=CO1)C1=CC=C(C=C1)C1=CC=CS1)C1=CC=CN=C1)C1=CC=CC=C1

$$$$

  Mrv2016 04192109512D          

 75 80  0  0  0  0            999 V2000
    1.6696   -2.1656    0.0000 O   0  0  0  0  0  0  0  0  0  0  0  0
    1.3996   -2.9451    0.0000 C   0  0  0  0  0  0  0  0  0  0  0  0
    0.5895   -3.1010    0.0000 N   0  0  0  0  0  0  0  0  0  0  0  0
    0.0494   -2.4774    0.0000 C   0  0  0  0  0  0  0  0  0  0  0  0
   -0.7608   -2.6333    0.0000 C   0  0  0  0  0  0  0  0  0  0  0  0
   -1.3009   -2.0097    0.0000 C   0  0  0  0  0  0  0  0  0  0  0  0
   -2.1110   -2.1656    0.0000 C   0  0  0  0  0  0  0  0  0  0  0  0
   -2.6511   -1.5419    0.0000 C   0  0  0  0  0  0  0  0  0  0  0  0
   -2.3810   -0.7624    0.0000 C   0  0  0  0  0  0  0  0  0  0  0  0
   -1.5709   -0.6065    0.0000 C   0  0  0  0  0  0  0  0  0  0  0  0
   -1.0308   -1.2301    0.0000 C   0  0  0  0  0  0  0  0  0  0  0  0
   -1.0308   -3.4129    0.0000 C   0  0  0  0  0  0  0  0  0  0  0  0
   -0.4907   -4.0365    0.0000 C   0  0  0  0  0  0  0  0  0  0  0  0
   -0.7608   -4.8161    0.0000 C   0  0  0  0  0  0  0  0  0  0  0  0
   -1.5709   -4.9720    0.0000 C   0  0  0  0  0  0  0  0  0  0  0  0
   -2.1110   -4.3483    0.0000 C   0  0  0  0  0  0  0  0  0  0  0  0
   -1.8409   -3.5688    0.0000 C   0  0  0  0  0  0  0  0  0  0  0  0
    1.9397   -3.5688    0.0000 C   0  0  0  0  0  0  0  0  0  0  0  0
    2.7498   -3.4129    0.0000 N   0  0  0  0  0  0  0  0  0  0  0  0
    3.0199   -2.6333    0.0000 C   0  0  0  0  0  0  0  0  0  0  0  0
    2.4798   -2.0097    0.0000 O   0  0  0  0  0  0  0  0  0  0  0  0
    3.8300   -2.4774    0.0000 C   0  0  0  0  0  0  0  0  0  0  0  0
    4.1800   -1.7303    0.0000 C   0  0  0  0  0  0  0  0  0  0  0  0
    4.9987   -1.8324    0.0000 C   0  0  0  0  0  0  0  0  0  0  0  0
    5.1546   -2.6425    0.0000 C   0  0  0  0  0  0  0  0  0  0  0  0
    4.4323   -3.0412    0.0000 O   0  0  0  0  0  0  0  0  0  0  0  0
    3.2899   -4.0365    0.0000 C   0  0  0  0  0  0  0  0  0  0  0  0
    4.1000   -3.8806    0.0000 C   0  0  0  0  0  0  0  0  0  0  0  0
    4.6401   -4.5042    0.0000 C   0  0  0  0  0  0  0  0  0  0  0  0
    4.3701   -5.2838    0.0000 C   0  0  0  0  0  0  0  0  0  0  0  0
    3.5600   -5.4397    0.0000 C   0  0  0  0  0  0  0  0  0  0  0  0
    3.0199   -4.8161    0.0000 C   0  0  0  0  0  0  0  0  0  0  0  0
    4.9102   -5.9074    0.0000 C   0  0  0  0  0  0  0  0  0  0  0  0
    5.7203   -5.7515    0.0000 C   0  0  0  0  0  0  0  0  0  0  0  0
    6.2604   -6.3752    0.0000 C   0  0  0  0  0  0  0  0  0  0  0  0
    5.9904   -7.1547    0.0000 C   0  0  0  0  0  0  0  0  0  0  0  0
    5.1802   -7.3106    0.0000 C   0  0  0  0  0  0  0  0  0  0  0  0
    4.6401   -6.6870    0.0000 C   0  0  0  0  0  0  0  0  0  0  0  0
    1.6696   -4.3483    0.0000 C   0  0  0  0  0  0  0  0  0  0  0  0
    2.2097   -4.9720    0.0000 C   0  0  0  0  0  0  0  0  0  0  0  0
    1.9397   -5.7515    0.0000 C   0  0  0  0  0  0  0  0  0  0  0  0
    1.1295   -5.9074    0.0000 C   0  0  0  0  0  0  0  0  0  0  0  0
    0.5895   -5.2838    0.0000 N   0  0  0  0  0  0  0  0  0  0  0  0
    0.8595   -4.5042    0.0000 C   0  0  0  0  0  0  0  0  0  0  0  0
    0.3194   -3.8806    0.0000 H   0  0  0  0  0  0  0  0  0  0  0  0
    0.6406   -1.9020    0.0000 H   0  0  0  0  0  0  0  0  0  0  0  0
   -0.0592   -1.6596    0.0000 H   0  0  0  0  0  0  0  0  0  0  0  0
   -0.4907   -1.8538    0.0000 H   0  0  0  0  0  0  0  0  0  0  0  0
   -2.3810   -2.9451    0.0000 H   0  0  0  0  0  0  0  0  0  0  0  0
   -3.4612   -1.6979    0.0000 H   0  0  0  0  0  0  0  0  0  0  0  0
   -2.9211   -0.1387    0.0000 H   0  0  0  0  0  0  0  0  0  0  0  0
   -1.3009    0.1731    0.0000 H   0  0  0  0  0  0  0  0  0  0  0  0
   -0.4072   -0.6900    0.0000 H   0  0  0  0  0  0  0  0  0  0  0  0
   -0.2207   -3.2570    0.0000 H   0  0  0  0  0  0  0  0  0  0  0  0
   -0.2207   -5.4397    0.0000 H   0  0  0  0  0  0  0  0  0  0  0  0
   -1.8409   -5.7515    0.0000 H   0  0  0  0  0  0  0  0  0  0  0  0
   -2.9211   -4.5042    0.0000 H   0  0  0  0  0  0  0  0  0  0  0  0
   -1.5709   -2.7892    0.0000 H   0  0  0  0  0  0  0  0  0  0  0  0
    2.2097   -2.7892    0.0000 H   0  0  0  0  0  0  0  0  0  0  0  0
    3.7814   -1.0080    0.0000 H   0  0  0  0  0  0  0  0  0  0  0  0
    5.5625   -1.2301    0.0000 H   0  0  0  0  0  0  0  0  0  0  0  0
    5.9017   -2.9926    0.0000 H   0  0  0  0  0  0  0  0  0  0  0  0
    3.5736   -3.2454    0.0000 H   0  0  0  0  0  0  0  0  0  0  0  0
    5.4503   -4.3483    0.0000 H   0  0  0  0  0  0  0  0  0  0  0  0
    3.2899   -6.2193    0.0000 H   0  0  0  0  0  0  0  0  0  0  0  0
    2.4798   -4.1924    0.0000 H   0  0  0  0  0  0  0  0  0  0  0  0
    5.9904   -4.9720    0.0000 H   0  0  0  0  0  0  0  0  0  0  0  0
    7.0705   -6.2193    0.0000 H   0  0  0  0  0  0  0  0  0  0  0  0
    6.5304   -7.7784    0.0000 H   0  0  0  0  0  0  0  0  0  0  0  0
    4.9102   -8.0902    0.0000 H   0  0  0  0  0  0  0  0  0  0  0  0
    3.8300   -6.8429    0.0000 H   0  0  0  0  0  0  0  0  0  0  0  0
    2.7498   -5.5956    0.0000 H   0  0  0  0  0  0  0  0  0  0  0  0
    2.0956   -6.5617    0.0000 H   0  0  0  0  0  0  0  0  0  0  0  0
    0.8595   -6.6870    0.0000 H   0  0  0  0  0  0  0  0  0  0  0  0
    1.1295   -3.7247    0.0000 H   0  0  0  0  0  0  0  0  0  0  0  0
  1  2  2  0  0  0  0
  2  3  1  0  0  0  0
  3  4  1  0  0  0  0
  4  5  1  0  0  0  0
  5  6  1  0  0  0  0
  6  7  4  0  0  0  0
  7  8  4  0  0  0  0
  8  9  4  0  0  0  0
  9 10  4  0  0  0  0
 10 11  4  0  0  0  0
  5 12  1  0  0  0  0
 12 13  4  0  0  0  0
 13 14  4  0  0  0  0
 14 15  4  0  0  0  0
 15 16  4  0  0  0  0
 16 17  4  0  0  0  0
  2 18  1  0  0  0  0
 18 19  1  0  0  0  0
 19 20  1  0  0  0  0
 20 21  2  0  0  0  0
 20 22  1  0  0  0  0
 22 23  4  0  0  0  0
 23 24  4  0  0  0  0
 24 25  4  0  0  0  0
 25 26  4  0  0  0  0
 19 27  1  0  0  0  0
 27 28  4  0  0  0  0
 28 29  4  0  0  0  0
 29 30  4  0  0  0  0
 30 31  4  0  0  0  0
 31 32  4  0  0  0  0
 30 33  1  0  0  0  0
 33 34  4  0  0  0  0
 34 35  4  0  0  0  0
 35 36  4  0  0  0  0
 36 37  4  0  0  0  0
 37 38  4  0  0  0  0
 18 39  1  0  0  0  0
 39 40  4  0  0  0  0
 40 41  4  0  0  0  0
 41 42  4  0  0  0  0
 42 43  4  0  0  0  0
 43 44  4  0  0  0  0
 11  6  4  0  0  0  0
 17 12  4  0  0  0  0
 26 22  4  0  0  0  0
 32 27  4  0  0  0  0
 38 33  4  0  0  0  0
 44 39  4  0  0  0  0
  3 45  1  0  0  0  0
  4 46  1  0  0  0  0
  4 47  1  0  0  0  0
  5 48  1  0  0  0  0
  7 49  1  0  0  0  0
  8 50  1  0  0  0  0
  9 51  1  0  0  0  0
 10 52  1  0  0  0  0
 11 53  1  0  0  0  0
 13 54  1  0  0  0  0
 14 55  1  0  0  0  0
 15 56  1  0  0  0  0
 16 57  1  0  0  0  0
 17 58  1  0  0  0  0
 18 59  1  0  0  0  0
 23 60  1  0  0  0  0
 24 61  1  0  0  0  0
 25 62  1  0  0  0  0
 28 63  1  0  0  0  0
 29 64  1  0  0  0  0
 31 65  1  0  0  0  0
 32 66  1  0  0  0  0
 34 67  1  0  0  0  0
 35 68  1  0  0  0  0
 36 69  1  0  0  0  0
 37 70  1  0  0  0  0
 38 71  1  0  0  0  0
 40 72  1  0  0  0  0
 41 73  1  0  0  0  0
 42 74  1  0  0  0  0
 44 75  1  0  0  0  0
M  END
> <Compound>
39a

>  <SMILE>
O=C(NCC(C1=CC=CC=C1)C1=CC=CC=C1)C(N(C(=O)C1=CC=CO1)C1=CC=C(C=C1)C1=CC=CC=C1)C1=CC=CN=C1

> <Relation>
=

>  <IC50 (??M)>
1.48

> <Bond Type>
Non-covalent

> <References>
10.1101/2020.12.19.423537

> <Year>
2020

> <StandardizerResult>
Remove Explicit Hydrogens (ID: RemoveExplicitH)
Dearomatize (ID: Dearomatize)
Clear Stereo (ID: ClearStereo)
Wedge Clean (ID: WedgeClean)
Mesomerize (ID: Mesomerize)
Tautomerize (ID: Tautomerize)
Aromatize (ID: Aromatize)
Add Explicit Hydrogens (ID: AddExplicitH)
Neutralize (ID: Neutralize)
Clean 2D (ID: Clean2D)

> <Molecule (InChiKey)>
NWPFRNAKGQTGOK-UHFFFAOYSA-N

> <Outcome>
Active

> <IC50 (uM)>
1.48

> <SMILES>
O=C(NCC(C1=CC=CC=C1)C1=CC=CC=C1)C(N(C(=O)C1=CC=CO1)C1=CC=C(C=C1)C1=CC=CC=C1)C1=CC=CN=C1

$$$$

  Mrv2016 04192109512D          

 65 69  0  0  0  0            999 V2000
    3.2984   -1.0071    0.0000 O   0  0  0  0  0  0  0  0  0  0  0  0
    2.5839   -0.5946    0.0000 C   0  0  0  0  0  0  0  0  0  0  0  0
    2.5839    0.2304    0.0000 N   0  0  0  0  0  0  0  0  0  0  0  0
    3.2984    0.6429    0.0000 C   0  0  0  0  0  0  0  0  0  0  0  0
    3.2984    1.4679    0.0000 C   0  0  0  0  0  0  0  0  0  0  0  0
    4.0128    1.8804    0.0000 C   0  0  0  0  0  0  0  0  0  0  0  0
    4.7273    1.4679    0.0000 C   0  0  0  0  0  0  0  0  0  0  0  0
    4.7273    0.6429    0.0000 C   0  0  0  0  0  0  0  0  0  0  0  0
    4.0128    0.2304    0.0000 C   0  0  0  0  0  0  0  0  0  0  0  0
    1.8694   -1.0071    0.0000 C   0  0  0  0  0  0  0  0  0  0  0  0
    1.8694   -1.8321    0.0000 N   0  0  0  0  0  0  0  0  0  0  0  0
    2.5839   -2.2446    0.0000 C   0  0  0  0  0  0  0  0  0  0  0  0
    3.2984   -1.8321    0.0000 O   0  0  0  0  0  0  0  0  0  0  0  0
    2.5839   -3.0696    0.0000 C   0  0  0  0  0  0  0  0  0  0  0  0
    3.2513   -3.5545    0.0000 C   0  0  0  0  0  0  0  0  0  0  0  0
    2.9964   -4.3392    0.0000 C   0  0  0  0  0  0  0  0  0  0  0  0
    2.1714   -4.3392    0.0000 C   0  0  0  0  0  0  0  0  0  0  0  0
    1.9164   -3.5545    0.0000 O   0  0  0  0  0  0  0  0  0  0  0  0
    1.1549   -2.2446    0.0000 C   0  0  0  0  0  0  0  0  0  0  0  0
    1.1549   -3.0696    0.0000 C   0  0  0  0  0  0  0  0  0  0  0  0
    0.4405   -3.4821    0.0000 C   0  0  0  0  0  0  0  0  0  0  0  0
   -0.2740   -3.0696    0.0000 C   0  0  0  0  0  0  0  0  0  0  0  0
   -0.2740   -2.2446    0.0000 C   0  0  0  0  0  0  0  0  0  0  0  0
    0.4405   -1.8321    0.0000 C   0  0  0  0  0  0  0  0  0  0  0  0
   -0.9885   -3.4821    0.0000 C   0  0  0  0  0  0  0  0  0  0  0  0
   -0.9885   -4.3071    0.0000 C   0  0  0  0  0  0  0  0  0  0  0  0
   -1.7029   -4.7196    0.0000 C   0  0  0  0  0  0  0  0  0  0  0  0
   -2.4174   -4.3071    0.0000 C   0  0  0  0  0  0  0  0  0  0  0  0
   -2.4174   -3.4821    0.0000 C   0  0  0  0  0  0  0  0  0  0  0  0
   -1.7029   -3.0696    0.0000 C   0  0  0  0  0  0  0  0  0  0  0  0
    1.1549   -0.5946    0.0000 C   0  0  0  0  0  0  0  0  0  0  0  0
    0.4405   -1.0071    0.0000 C   0  0  0  0  0  0  0  0  0  0  0  0
   -0.2740   -0.5946    0.0000 C   0  0  0  0  0  0  0  0  0  0  0  0
   -0.2740    0.2304    0.0000 C   0  0  0  0  0  0  0  0  0  0  0  0
    0.4405    0.6429    0.0000 N   0  0  0  0  0  0  0  0  0  0  0  0
    1.1549    0.2304    0.0000 C   0  0  0  0  0  0  0  0  0  0  0  0
    1.8694    0.6429    0.0000 H   0  0  0  0  0  0  0  0  0  0  0  0
    3.2984   -0.1821    0.0000 H   0  0  0  0  0  0  0  0  0  0  0  0
    2.8450    2.1572    0.0000 H   0  0  0  0  0  0  0  0  0  0  0  0
    2.4747    1.5158    0.0000 H   0  0  0  0  0  0  0  0  0  0  0  0
    4.3831    2.6176    0.0000 H   0  0  0  0  0  0  0  0  0  0  0  0
    3.6426    2.6176    0.0000 H   0  0  0  0  0  0  0  0  0  0  0  0
    5.5509    1.5158    0.0000 H   0  0  0  0  0  0  0  0  0  0  0  0
    5.1806    2.1572    0.0000 H   0  0  0  0  0  0  0  0  0  0  0  0
    5.1806   -0.0464    0.0000 H   0  0  0  0  0  0  0  0  0  0  0  0
    5.5509    0.5949    0.0000 H   0  0  0  0  0  0  0  0  0  0  0  0
    4.1561   -0.5821    0.0000 H   0  0  0  0  0  0  0  0  0  0  0  0
    4.6448   -0.2999    0.0000 H   0  0  0  0  0  0  0  0  0  0  0  0
    2.5839   -1.4196    0.0000 H   0  0  0  0  0  0  0  0  0  0  0  0
    4.0359   -3.2996    0.0000 H   0  0  0  0  0  0  0  0  0  0  0  0
    3.4813   -5.0066    0.0000 H   0  0  0  0  0  0  0  0  0  0  0  0
    1.6865   -5.0066    0.0000 H   0  0  0  0  0  0  0  0  0  0  0  0
    1.8782   -2.6727    0.0000 H   0  0  0  0  0  0  0  0  0  0  0  0
    0.4405   -4.3071    0.0000 H   0  0  0  0  0  0  0  0  0  0  0  0
   -0.9885   -1.8321    0.0000 H   0  0  0  0  0  0  0  0  0  0  0  0
    1.1549   -1.4196    0.0000 H   0  0  0  0  0  0  0  0  0  0  0  0
   -0.2740   -4.7196    0.0000 H   0  0  0  0  0  0  0  0  0  0  0  0
   -1.7029   -5.5446    0.0000 H   0  0  0  0  0  0  0  0  0  0  0  0
   -3.1319   -4.7196    0.0000 H   0  0  0  0  0  0  0  0  0  0  0  0
   -3.1319   -3.0696    0.0000 H   0  0  0  0  0  0  0  0  0  0  0  0
   -1.7029   -2.2446    0.0000 H   0  0  0  0  0  0  0  0  0  0  0  0
   -0.2740   -1.4196    0.0000 H   0  0  0  0  0  0  0  0  0  0  0  0
   -1.0990   -0.5946    0.0000 H   0  0  0  0  0  0  0  0  0  0  0  0
   -0.9885    0.6429    0.0000 H   0  0  0  0  0  0  0  0  0  0  0  0
    1.8694   -0.1821    0.0000 H   0  0  0  0  0  0  0  0  0  0  0  0
  1  2  2  0  0  0  0
  2  3  1  0  0  0  0
  3  4  1  0  0  0  0
  4  5  1  0  0  0  0
  5  6  1  0  0  0  0
  6  7  1  0  0  0  0
  7  8  1  0  0  0  0
  8  9  1  0  0  0  0
  2 10  1  0  0  0  0
 10 11  1  0  0  0  0
 11 12  1  0  0  0  0
 12 13  2  0  0  0  0
 12 14  1  0  0  0  0
 14 15  4  0  0  0  0
 15 16  4  0  0  0  0
 16 17  4  0  0  0  0
 17 18  4  0  0  0  0
 11 19  1  0  0  0  0
 19 20  4  0  0  0  0
 20 21  4  0  0  0  0
 21 22  4  0  0  0  0
 22 23  4  0  0  0  0
 23 24  4  0  0  0  0
 22 25  1  0  0  0  0
 25 26  4  0  0  0  0
 26 27  4  0  0  0  0
 27 28  4  0  0  0  0
 28 29  4  0  0  0  0
 29 30  4  0  0  0  0
 10 31  1  0  0  0  0
 31 32  4  0  0  0  0
 32 33  4  0  0  0  0
 33 34  4  0  0  0  0
 34 35  4  0  0  0  0
 35 36  4  0  0  0  0
  9  4  1  0  0  0  0
 18 14  4  0  0  0  0
 24 19  4  0  0  0  0
 30 25  4  0  0  0  0
 36 31  4  0  0  0  0
  3 37  1  0  0  0  0
  4 38  1  0  0  0  0
  5 39  1  0  0  0  0
  5 40  1  0  0  0  0
  6 41  1  0  0  0  0
  6 42  1  0  0  0  0
  7 43  1  0  0  0  0
  7 44  1  0  0  0  0
  8 45  1  0  0  0  0
  8 46  1  0  0  0  0
  9 47  1  0  0  0  0
  9 48  1  0  0  0  0
 10 49  1  0  0  0  0
 15 50  1  0  0  0  0
 16 51  1  0  0  0  0
 17 52  1  0  0  0  0
 20 53  1  0  0  0  0
 21 54  1  0  0  0  0
 23 55  1  0  0  0  0
 24 56  1  0  0  0  0
 26 57  1  0  0  0  0
 27 58  1  0  0  0  0
 28 59  1  0  0  0  0
 29 60  1  0  0  0  0
 30 61  1  0  0  0  0
 32 62  1  0  0  0  0
 33 63  1  0  0  0  0
 34 64  1  0  0  0  0
 36 65  1  0  0  0  0
M  END
> <Compound>
34a

>  <SMILE>
O=C(NC1CCCCC1)C(N(C(=O)C1=CC=CO1)C1=CC=C(C=C1)C1=CC=CC=C1)C1=CC=CN=C1

> <Relation>
=

>  <IC50 (??M)>
2.68

> <Bond Type>
Non-covalent

> <References>
10.1101/2020.12.19.423537

> <Year>
2020

> <StandardizerResult>
Remove Explicit Hydrogens (ID: RemoveExplicitH)
Dearomatize (ID: Dearomatize)
Clear Stereo (ID: ClearStereo)
Wedge Clean (ID: WedgeClean)
Mesomerize (ID: Mesomerize)
Tautomerize (ID: Tautomerize)
Aromatize (ID: Aromatize)
Add Explicit Hydrogens (ID: AddExplicitH)
Neutralize (ID: Neutralize)
Clean 2D (ID: Clean2D)

> <Molecule (InChiKey)>
OKHRVKARLOVBRJ-UHFFFAOYSA-N

> <Outcome>
Active

> <IC50 (uM)>
2.68

> <SMILES>
O=C(NC1CCCCC1)C(N(C(=O)C1=CC=CO1)C1=CC=C(C=C1)C1=CC=CC=C1)C1=CC=CN=C1

$$$$

  Mrv2016 04192109512D          

 58 61  0  0  0  0            999 V2000
    1.1462   -2.6608    0.0000 C   0  0  0  0  0  0  0  0  0  0  0  0
    0.7337   -1.9464    0.0000 C   0  0  0  0  0  0  0  0  0  0  0  0
    1.4481   -1.5339    0.0000 C   0  0  0  0  0  0  0  0  0  0  0  0
    0.0192   -2.3589    0.0000 C   0  0  0  0  0  0  0  0  0  0  0  0
    0.3212   -1.2319    0.0000 C   0  0  0  0  0  0  0  0  0  0  0  0
   -0.5038   -1.2319    0.0000 C   0  0  0  0  0  0  0  0  0  0  0  0
   -0.9163   -0.5174    0.0000 C   0  0  0  0  0  0  0  0  0  0  0  0
   -0.5038    0.1970    0.0000 C   0  0  0  0  0  0  0  0  0  0  0  0
    0.3212    0.1970    0.0000 C   0  0  0  0  0  0  0  0  0  0  0  0
    0.7337   -0.5174    0.0000 C   0  0  0  0  0  0  0  0  0  0  0  0
   -0.9163    0.9115    0.0000 N   0  0  0  0  0  0  0  0  0  0  0  0
   -1.7413    0.9115    0.0000 C   0  0  0  0  0  0  0  0  0  0  0  0
   -2.1538    1.6260    0.0000 C   0  0  0  0  0  0  0  0  0  0  0  0
   -1.7413    2.3405    0.0000 O   0  0  0  0  0  0  0  0  0  0  0  0
   -2.9788    1.6260    0.0000 N   0  0  0  0  0  0  0  0  0  0  0  0
   -3.3913    2.3405    0.0000 C   0  0  0  0  0  0  0  0  0  0  0  0
   -4.1058    2.7530    0.0000 C   0  0  0  0  0  0  0  0  0  0  0  0
   -3.3913    3.1655    0.0000 C   0  0  0  0  0  0  0  0  0  0  0  0
   -2.1538    0.1970    0.0000 C   0  0  0  0  0  0  0  0  0  0  0  0
   -1.7413   -0.5174    0.0000 C   0  0  0  0  0  0  0  0  0  0  0  0
   -2.1538   -1.2319    0.0000 N   0  0  0  0  0  0  0  0  0  0  0  0
   -2.9788   -1.2319    0.0000 C   0  0  0  0  0  0  0  0  0  0  0  0
   -3.3913   -0.5174    0.0000 C   0  0  0  0  0  0  0  0  0  0  0  0
   -2.9788    0.1970    0.0000 C   0  0  0  0  0  0  0  0  0  0  0  0
   -0.5038    1.6260    0.0000 C   0  0  0  0  0  0  0  0  0  0  0  0
   -0.9163    2.3405    0.0000 O   0  0  0  0  0  0  0  0  0  0  0  0
    0.3212    1.6260    0.0000 C   0  0  0  0  0  0  0  0  0  0  0  0
    0.8061    2.2934    0.0000 C   0  0  0  0  0  0  0  0  0  0  0  0
    1.5907    2.0385    0.0000 C   0  0  0  0  0  0  0  0  0  0  0  0
    1.5907    1.2135    0.0000 C   0  0  0  0  0  0  0  0  0  0  0  0
    0.8061    0.9585    0.0000 O   0  0  0  0  0  0  0  0  0  0  0  0
    0.4317   -3.0733    0.0000 H   0  0  0  0  0  0  0  0  0  0  0  0
    1.5587   -3.3753    0.0000 H   0  0  0  0  0  0  0  0  0  0  0  0
    1.8606   -2.2483    0.0000 H   0  0  0  0  0  0  0  0  0  0  0  0
    2.2661   -1.4262    0.0000 H   0  0  0  0  0  0  0  0  0  0  0  0
    1.6617   -0.7370    0.0000 H   0  0  0  0  0  0  0  0  0  0  0  0
    0.7936   -1.0316    0.0000 H   0  0  0  0  0  0  0  0  0  0  0  0
   -0.0885   -1.5409    0.0000 H   0  0  0  0  0  0  0  0  0  0  0  0
   -0.7777   -2.1453    0.0000 H   0  0  0  0  0  0  0  0  0  0  0  0
   -0.4830   -3.0134    0.0000 H   0  0  0  0  0  0  0  0  0  0  0  0
   -1.3233   -1.3275    0.0000 H   0  0  0  0  0  0  0  0  0  0  0  0
   -1.3288    0.1970    0.0000 H   0  0  0  0  0  0  0  0  0  0  0  0
    1.1460    0.1791    0.0000 H   0  0  0  0  0  0  0  0  0  0  0  0
   -0.0913   -0.5174    0.0000 H   0  0  0  0  0  0  0  0  0  0  0  0
   -1.3288    1.6260    0.0000 H   0  0  0  0  0  0  0  0  0  0  0  0
   -3.3913    0.9115    0.0000 H   0  0  0  0  0  0  0  0  0  0  0  0
   -2.5944    2.5540    0.0000 H   0  0  0  0  0  0  0  0  0  0  0  0
   -4.7951    3.2063    0.0000 H   0  0  0  0  0  0  0  0  0  0  0  0
   -4.7951    2.2996    0.0000 H   0  0  0  0  0  0  0  0  0  0  0  0
   -2.6541    3.5357    0.0000 H   0  0  0  0  0  0  0  0  0  0  0  0
   -3.4393    3.9891    0.0000 H   0  0  0  0  0  0  0  0  0  0  0  0
   -2.5663   -0.5174    0.0000 H   0  0  0  0  0  0  0  0  0  0  0  0
   -3.3913   -1.9464    0.0000 H   0  0  0  0  0  0  0  0  0  0  0  0
   -4.2163   -0.5174    0.0000 H   0  0  0  0  0  0  0  0  0  0  0  0
   -2.5663    0.9115    0.0000 H   0  0  0  0  0  0  0  0  0  0  0  0
    0.5512    3.0780    0.0000 H   0  0  0  0  0  0  0  0  0  0  0  0
    2.2582    2.5234    0.0000 H   0  0  0  0  0  0  0  0  0  0  0  0
    2.2582    0.7286    0.0000 H   0  0  0  0  0  0  0  0  0  0  0  0
  1  2  1  0  0  0  0
  2  3  1  0  0  0  0
  2  4  1  0  0  0  0
  2  5  1  0  0  0  0
  5  6  4  0  0  0  0
  6  7  4  0  0  0  0
  7  8  4  0  0  0  0
  8  9  4  0  0  0  0
  9 10  4  0  0  0  0
  8 11  1  0  0  0  0
 11 12  1  0  0  0  0
 12 13  1  0  0  0  0
 13 14  2  0  0  0  0
 13 15  1  0  0  0  0
 15 16  1  0  0  0  0
 16 17  1  0  0  0  0
 17 18  1  0  0  0  0
 12 19  1  0  0  0  0
 19 20  4  0  0  0  0
 20 21  4  0  0  0  0
 21 22  4  0  0  0  0
 22 23  4  0  0  0  0
 23 24  4  0  0  0  0
 11 25  1  0  0  0  0
 25 26  2  0  0  0  0
 25 27  1  0  0  0  0
 27 28  4  0  0  0  0
 28 29  4  0  0  0  0
 29 30  4  0  0  0  0
 30 31  4  0  0  0  0
 10  5  4  0  0  0  0
 18 16  1  0  0  0  0
 24 19  4  0  0  0  0
 31 27  4  0  0  0  0
  1 32  1  0  0  0  0
  1 33  1  0  0  0  0
  1 34  1  0  0  0  0
  3 35  1  0  0  0  0
  3 36  1  0  0  0  0
  3 37  1  0  0  0  0
  4 38  1  0  0  0  0
  4 39  1  0  0  0  0
  4 40  1  0  0  0  0
  6 41  1  0  0  0  0
  7 42  1  0  0  0  0
  9 43  1  0  0  0  0
 10 44  1  0  0  0  0
 12 45  1  0  0  0  0
 15 46  1  0  0  0  0
 16 47  1  0  0  0  0
 17 48  1  0  0  0  0
 17 49  1  0  0  0  0
 18 50  1  0  0  0  0
 18 51  1  0  0  0  0
 20 52  1  0  0  0  0
 22 53  1  0  0  0  0
 23 54  1  0  0  0  0
 24 55  1  0  0  0  0
 28 56  1  0  0  0  0
 29 57  1  0  0  0  0
 30 58  1  0  0  0  0
M  END
> <Compound>
3a

>  <SMILE>
CC(C)(C)C1=CC=C(C=C1)N(C(C(=O)NC1CC1)C1=CN=CC=C1)C(=O)C1=CC=CO1

> <Relation>
=

>  <IC50 (??M)>
3.86

> <Bond Type>
Non-covalent

> <References>
10.1101/2020.12.19.423537

> <Year>
2020

> <StandardizerResult>
Remove Explicit Hydrogens (ID: RemoveExplicitH)
Dearomatize (ID: Dearomatize)
Clear Stereo (ID: ClearStereo)
Wedge Clean (ID: WedgeClean)
Mesomerize (ID: Mesomerize)
Tautomerize (ID: Tautomerize)
Aromatize (ID: Aromatize)
Add Explicit Hydrogens (ID: AddExplicitH)
Neutralize (ID: Neutralize)
Clean 2D (ID: Clean2D)

> <Molecule (InChiKey)>
OMEKWEAKEKVEHF-UHFFFAOYSA-N

> <Outcome>
Active

> <IC50 (uM)>
3.86

> <SMILES>
CC(C)(C)C1=CC=C(C=C1)N(C(C(=O)NC1CC1)C1=CN=CC=C1)C(=O)C1=CC=CO1

$$$$

  Mrv2016 04192109512D          

 64 68  0  0  0  0            999 V2000
   -3.3388   -2.7420    0.0000 C   0  0  0  0  0  0  0  0  0  0  0  0
   -2.5138   -2.7420    0.0000 C   0  0  0  0  0  0  0  0  0  0  0  0
   -2.1013   -2.0275    0.0000 N   0  0  0  0  0  0  0  0  0  0  0  0
   -1.2763   -2.0275    0.0000 C   0  0  0  0  0  0  0  0  0  0  0  0
   -0.8638   -2.7420    0.0000 O   0  0  0  0  0  0  0  0  0  0  0  0
   -0.8638   -1.3130    0.0000 C   0  0  0  0  0  0  0  0  0  0  0  0
   -0.0388   -1.3130    0.0000 N   0  0  0  0  0  0  0  0  0  0  0  0
    0.3737   -2.0275    0.0000 C   0  0  0  0  0  0  0  0  0  0  0  0
   -0.0388   -2.7420    0.0000 O   0  0  0  0  0  0  0  0  0  0  0  0
    1.1987   -2.0275    0.0000 C   0  0  0  0  0  0  0  0  0  0  0  0
    1.6837   -2.6949    0.0000 C   0  0  0  0  0  0  0  0  0  0  0  0
    2.4683   -2.4400    0.0000 N   0  0  0  0  0  0  0  0  0  0  0  0
    2.4683   -1.6150    0.0000 C   0  0  0  0  0  0  0  0  0  0  0  0
    1.6837   -1.3601    0.0000 O   0  0  0  0  0  0  0  0  0  0  0  0
    0.3737   -0.5986    0.0000 C   0  0  0  0  0  0  0  0  0  0  0  0
   -0.0388    0.1159    0.0000 C   0  0  0  0  0  0  0  0  0  0  0  0
    0.3737    0.8304    0.0000 C   0  0  0  0  0  0  0  0  0  0  0  0
    1.1987    0.8304    0.0000 C   0  0  0  0  0  0  0  0  0  0  0  0
    1.6112    0.1159    0.0000 C   0  0  0  0  0  0  0  0  0  0  0  0
    1.1987   -0.5986    0.0000 C   0  0  0  0  0  0  0  0  0  0  0  0
    1.6112    1.5449    0.0000 C   0  0  0  0  0  0  0  0  0  0  0  0
    1.1987    2.2593    0.0000 C   0  0  0  0  0  0  0  0  0  0  0  0
    1.6112    2.9738    0.0000 C   0  0  0  0  0  0  0  0  0  0  0  0
    2.4362    2.9738    0.0000 C   0  0  0  0  0  0  0  0  0  0  0  0
    2.8487    2.2593    0.0000 C   0  0  0  0  0  0  0  0  0  0  0  0
    2.4362    1.5449    0.0000 C   0  0  0  0  0  0  0  0  0  0  0  0
   -1.2763   -0.5986    0.0000 C   0  0  0  0  0  0  0  0  0  0  0  0
   -2.1013   -0.5986    0.0000 C   0  0  0  0  0  0  0  0  0  0  0  0
   -2.5138    0.1159    0.0000 C   0  0  0  0  0  0  0  0  0  0  0  0
   -2.1013    0.8304    0.0000 C   0  0  0  0  0  0  0  0  0  0  0  0
   -1.2763    0.8304    0.0000 N   0  0  0  0  0  0  0  0  0  0  0  0
   -0.8638    0.1159    0.0000 C   0  0  0  0  0  0  0  0  0  0  0  0
   -2.1013   -3.4564    0.0000 C   0  0  0  0  0  0  0  0  0  0  0  0
   -1.2763   -3.4564    0.0000 C   0  0  0  0  0  0  0  0  0  0  0  0
   -0.8638   -4.1709    0.0000 C   0  0  0  0  0  0  0  0  0  0  0  0
   -1.2763   -4.8854    0.0000 C   0  0  0  0  0  0  0  0  0  0  0  0
   -2.1013   -4.8854    0.0000 C   0  0  0  0  0  0  0  0  0  0  0  0
   -2.5138   -4.1709    0.0000 C   0  0  0  0  0  0  0  0  0  0  0  0
   -3.3388   -1.9170    0.0000 H   0  0  0  0  0  0  0  0  0  0  0  0
   -4.1638   -2.7420    0.0000 H   0  0  0  0  0  0  0  0  0  0  0  0
   -3.3388   -3.5670    0.0000 H   0  0  0  0  0  0  0  0  0  0  0  0
   -2.9263   -2.0275    0.0000 H   0  0  0  0  0  0  0  0  0  0  0  0
   -2.1013   -1.2025    0.0000 H   0  0  0  0  0  0  0  0  0  0  0  0
   -0.4513   -2.0275    0.0000 H   0  0  0  0  0  0  0  0  0  0  0  0
    1.4287   -3.4796    0.0000 H   0  0  0  0  0  0  0  0  0  0  0  0
    3.1357   -1.1301    0.0000 H   0  0  0  0  0  0  0  0  0  0  0  0
   -0.4513   -0.5986    0.0000 H   0  0  0  0  0  0  0  0  0  0  0  0
   -0.0388    1.5449    0.0000 H   0  0  0  0  0  0  0  0  0  0  0  0
    2.4362    0.1159    0.0000 H   0  0  0  0  0  0  0  0  0  0  0  0
    0.8019   -1.3218    0.0000 H   0  0  0  0  0  0  0  0  0  0  0  0
    0.3737    2.2593    0.0000 H   0  0  0  0  0  0  0  0  0  0  0  0
    1.1987    3.6883    0.0000 H   0  0  0  0  0  0  0  0  0  0  0  0
    2.8487    3.6883    0.0000 H   0  0  0  0  0  0  0  0  0  0  0  0
    3.6737    2.2593    0.0000 H   0  0  0  0  0  0  0  0  0  0  0  0
    2.8487    0.8304    0.0000 H   0  0  0  0  0  0  0  0  0  0  0  0
   -2.8981   -0.8121    0.0000 H   0  0  0  0  0  0  0  0  0  0  0  0
   -3.3388    0.1159    0.0000 H   0  0  0  0  0  0  0  0  0  0  0  0
   -2.5138    1.5449    0.0000 H   0  0  0  0  0  0  0  0  0  0  0  0
   -1.6888    0.1159    0.0000 H   0  0  0  0  0  0  0  0  0  0  0  0
   -1.6888   -2.7420    0.0000 H   0  0  0  0  0  0  0  0  0  0  0  0
   -0.0388   -4.1709    0.0000 H   0  0  0  0  0  0  0  0  0  0  0  0
   -0.8638   -5.5999    0.0000 H   0  0  0  0  0  0  0  0  0  0  0  0
   -2.5138   -5.5999    0.0000 H   0  0  0  0  0  0  0  0  0  0  0  0
   -3.3388   -4.1709    0.0000 H   0  0  0  0  0  0  0  0  0  0  0  0
  2  1  1  0  0  0  0
  2  3  1  0  0  0  0
  3  4  1  0  0  0  0
  4  5  2  0  0  0  0
  4  6  1  0  0  0  0
  6  7  1  0  0  0  0
  7  8  1  0  0  0  0
  8  9  2  0  0  0  0
  8 10  1  0  0  0  0
 10 11  4  0  0  0  0
 11 12  4  0  0  0  0
 12 13  4  0  0  0  0
 13 14  4  0  0  0  0
  7 15  1  0  0  0  0
 15 16  4  0  0  0  0
 16 17  4  0  0  0  0
 17 18  4  0  0  0  0
 18 19  4  0  0  0  0
 19 20  4  0  0  0  0
 18 21  1  0  0  0  0
 21 22  4  0  0  0  0
 22 23  4  0  0  0  0
 23 24  4  0  0  0  0
 24 25  4  0  0  0  0
 25 26  4  0  0  0  0
  6 27  1  0  0  0  0
 27 28  4  0  0  0  0
 28 29  4  0  0  0  0
 29 30  4  0  0  0  0
 30 31  4  0  0  0  0
 31 32  4  0  0  0  0
  2 33  1  0  0  0  0
 33 34  4  0  0  0  0
 34 35  4  0  0  0  0
 35 36  4  0  0  0  0
 36 37  4  0  0  0  0
 37 38  4  0  0  0  0
 14 10  4  0  0  0  0
 20 15  4  0  0  0  0
 26 21  4  0  0  0  0
 32 27  4  0  0  0  0
 38 33  4  0  0  0  0
  1 39  1  0  0  0  0
  1 40  1  0  0  0  0
  1 41  1  0  0  0  0
  2 42  1  0  0  0  0
  3 43  1  0  0  0  0
  6 44  1  0  0  0  0
 11 45  1  0  0  0  0
 13 46  1  0  0  0  0
 16 47  1  0  0  0  0
 17 48  1  0  0  0  0
 19 49  1  0  0  0  0
 20 50  1  0  0  0  0
 22 51  1  0  0  0  0
 23 52  1  0  0  0  0
 24 53  1  0  0  0  0
 25 54  1  0  0  0  0
 26 55  1  0  0  0  0
 28 56  1  0  0  0  0
 29 57  1  0  0  0  0
 30 58  1  0  0  0  0
 32 59  1  0  0  0  0
 34 60  1  0  0  0  0
 35 61  1  0  0  0  0
 36 62  1  0  0  0  0
 37 63  1  0  0  0  0
 38 64  1  0  0  0  0
M  END
> <Compound>
26a

>  <SMILE>
C[C@H](NC(=O)C(N(C(=O)C1=CN=CO1)C1=CC=C(C=C1)C1=CC=CC=C1)C1=CC=CN=C1)C1=CC=CC=C1

> <Relation>
=

>  <IC50 (??M)>
4.97

> <Bond Type>
Non-covalent

> <References>
10.1101/2020.12.19.423537

> <Year>
2020

> <StandardizerResult>
Remove Explicit Hydrogens (ID: RemoveExplicitH)
Dearomatize (ID: Dearomatize)
Clear Stereo (ID: ClearStereo)
Wedge Clean (ID: WedgeClean)
Mesomerize (ID: Mesomerize)
Tautomerize (ID: Tautomerize)
Aromatize (ID: Aromatize)
Add Explicit Hydrogens (ID: AddExplicitH)
Neutralize (ID: Neutralize)
Clean 2D (ID: Clean2D)

> <Molecule (InChiKey)>
OOWIYZOIKWPXEB-UHFFFAOYSA-N

> <Outcome>
Active

> <IC50 (uM)>
4.97

> <SMILES>
C[C@H](NC(=O)C(N(C(=O)C1=CN=CO1)C1=CC=C(C=C1)C1=CC=CC=C1)C1=CC=CN=C1)C1=CC=CC=C1

$$$$

  Mrv2016 04192109512D          

 67 70  0  0  0  0            999 V2000
    1.0156   -2.9302    0.0000 C   0  0  0  0  0  0  0  0  0  0  0  0
    0.6031   -2.2157    0.0000 C   0  0  0  0  0  0  0  0  0  0  0  0
    1.3176   -1.8032    0.0000 C   0  0  0  0  0  0  0  0  0  0  0  0
   -0.1114   -2.6282    0.0000 C   0  0  0  0  0  0  0  0  0  0  0  0
    0.1906   -1.5012    0.0000 C   0  0  0  0  0  0  0  0  0  0  0  0
   -0.6344   -1.5012    0.0000 C   0  0  0  0  0  0  0  0  0  0  0  0
   -1.0469   -0.7867    0.0000 C   0  0  0  0  0  0  0  0  0  0  0  0
   -0.6344   -0.0723    0.0000 C   0  0  0  0  0  0  0  0  0  0  0  0
    0.1906   -0.0723    0.0000 C   0  0  0  0  0  0  0  0  0  0  0  0
    0.6031   -0.7867    0.0000 C   0  0  0  0  0  0  0  0  0  0  0  0
   -1.0469    0.6422    0.0000 N   0  0  0  0  0  0  0  0  0  0  0  0
   -1.8719    0.6422    0.0000 C   0  0  0  0  0  0  0  0  0  0  0  0
   -2.2844    1.3567    0.0000 C   0  0  0  0  0  0  0  0  0  0  0  0
   -1.8719    2.0711    0.0000 O   0  0  0  0  0  0  0  0  0  0  0  0
   -3.1094    1.3567    0.0000 N   0  0  0  0  0  0  0  0  0  0  0  0
   -3.5219    2.0711    0.0000 C   0  0  0  0  0  0  0  0  0  0  0  0
   -4.3469    2.0711    0.0000 C   0  0  0  0  0  0  0  0  0  0  0  0
   -4.7594    2.7856    0.0000 C   0  0  0  0  0  0  0  0  0  0  0  0
   -4.3469    3.5001    0.0000 C   0  0  0  0  0  0  0  0  0  0  0  0
   -3.5219    3.5001    0.0000 C   0  0  0  0  0  0  0  0  0  0  0  0
   -3.1094    2.7856    0.0000 C   0  0  0  0  0  0  0  0  0  0  0  0
   -2.2844   -0.0723    0.0000 C   0  0  0  0  0  0  0  0  0  0  0  0
   -1.8719   -0.7867    0.0000 C   0  0  0  0  0  0  0  0  0  0  0  0
   -2.2844   -1.5012    0.0000 N   0  0  0  0  0  0  0  0  0  0  0  0
   -3.1094   -1.5012    0.0000 C   0  0  0  0  0  0  0  0  0  0  0  0
   -3.5219   -0.7867    0.0000 C   0  0  0  0  0  0  0  0  0  0  0  0
   -3.1094   -0.0723    0.0000 C   0  0  0  0  0  0  0  0  0  0  0  0
   -0.6344    1.3567    0.0000 C   0  0  0  0  0  0  0  0  0  0  0  0
   -1.0469    2.0711    0.0000 O   0  0  0  0  0  0  0  0  0  0  0  0
    0.1906    1.3567    0.0000 C   0  0  0  0  0  0  0  0  0  0  0  0
    0.6755    2.0241    0.0000 C   0  0  0  0  0  0  0  0  0  0  0  0
    1.4602    1.7692    0.0000 C   0  0  0  0  0  0  0  0  0  0  0  0
    1.4602    0.9442    0.0000 C   0  0  0  0  0  0  0  0  0  0  0  0
    0.6755    0.6892    0.0000 O   0  0  0  0  0  0  0  0  0  0  0  0
    0.3011   -3.3427    0.0000 H   0  0  0  0  0  0  0  0  0  0  0  0
    1.4281   -3.6446    0.0000 H   0  0  0  0  0  0  0  0  0  0  0  0
    1.7301   -2.5177    0.0000 H   0  0  0  0  0  0  0  0  0  0  0  0
    2.1355   -1.6955    0.0000 H   0  0  0  0  0  0  0  0  0  0  0  0
    1.5311   -1.0063    0.0000 H   0  0  0  0  0  0  0  0  0  0  0  0
    0.6631   -1.3010    0.0000 H   0  0  0  0  0  0  0  0  0  0  0  0
   -0.2190   -1.8102    0.0000 H   0  0  0  0  0  0  0  0  0  0  0  0
   -0.9083   -2.4147    0.0000 H   0  0  0  0  0  0  0  0  0  0  0  0
   -0.6136   -3.2827    0.0000 H   0  0  0  0  0  0  0  0  0  0  0  0
   -1.4538   -1.5968    0.0000 H   0  0  0  0  0  0  0  0  0  0  0  0
   -1.4594   -0.0723    0.0000 H   0  0  0  0  0  0  0  0  0  0  0  0
    1.0154   -0.0902    0.0000 H   0  0  0  0  0  0  0  0  0  0  0  0
   -0.2219   -0.7867    0.0000 H   0  0  0  0  0  0  0  0  0  0  0  0
   -1.4594    1.3567    0.0000 H   0  0  0  0  0  0  0  0  0  0  0  0
   -3.5219    0.6422    0.0000 H   0  0  0  0  0  0  0  0  0  0  0  0
   -2.6969    2.0711    0.0000 H   0  0  0  0  0  0  0  0  0  0  0  0
   -5.0362    1.6178    0.0000 H   0  0  0  0  0  0  0  0  0  0  0  0
   -4.3949    1.2475    0.0000 H   0  0  0  0  0  0  0  0  0  0  0  0
   -5.4966    3.1559    0.0000 H   0  0  0  0  0  0  0  0  0  0  0  0
   -5.4966    2.4153    0.0000 H   0  0  0  0  0  0  0  0  0  0  0  0
   -4.3949    4.3237    0.0000 H   0  0  0  0  0  0  0  0  0  0  0  0
   -5.0362    3.9534    0.0000 H   0  0  0  0  0  0  0  0  0  0  0  0
   -2.8326    3.9534    0.0000 H   0  0  0  0  0  0  0  0  0  0  0  0
   -3.4739    4.3237    0.0000 H   0  0  0  0  0  0  0  0  0  0  0  0
   -2.2969    2.9289    0.0000 H   0  0  0  0  0  0  0  0  0  0  0  0
   -2.5791    3.4176    0.0000 H   0  0  0  0  0  0  0  0  0  0  0  0
   -2.6969   -0.7867    0.0000 H   0  0  0  0  0  0  0  0  0  0  0  0
   -3.5219   -2.2157    0.0000 H   0  0  0  0  0  0  0  0  0  0  0  0
   -4.3469   -0.7867    0.0000 H   0  0  0  0  0  0  0  0  0  0  0  0
   -2.6969    0.6422    0.0000 H   0  0  0  0  0  0  0  0  0  0  0  0
    0.4206    2.8087    0.0000 H   0  0  0  0  0  0  0  0  0  0  0  0
    2.1276    2.2541    0.0000 H   0  0  0  0  0  0  0  0  0  0  0  0
    2.1276    0.4592    0.0000 H   0  0  0  0  0  0  0  0  0  0  0  0
  1  2  1  0  0  0  0
  2  3  1  0  0  0  0
  2  4  1  0  0  0  0
  2  5  1  0  0  0  0
  5  6  4  0  0  0  0
  6  7  4  0  0  0  0
  7  8  4  0  0  0  0
  8  9  4  0  0  0  0
  9 10  4  0  0  0  0
  8 11  1  0  0  0  0
 11 12  1  0  0  0  0
 12 13  1  0  0  0  0
 13 14  2  0  0  0  0
 13 15  1  0  0  0  0
 15 16  1  0  0  0  0
 16 17  1  0  0  0  0
 17 18  1  0  0  0  0
 18 19  1  0  0  0  0
 19 20  1  0  0  0  0
 20 21  1  0  0  0  0
 12 22  1  0  0  0  0
 22 23  4  0  0  0  0
 23 24  4  0  0  0  0
 24 25  4  0  0  0  0
 25 26  4  0  0  0  0
 26 27  4  0  0  0  0
 11 28  1  0  0  0  0
 28 29  2  0  0  0  0
 28 30  1  0  0  0  0
 30 31  4  0  0  0  0
 31 32  4  0  0  0  0
 32 33  4  0  0  0  0
 33 34  4  0  0  0  0
 10  5  4  0  0  0  0
 21 16  1  0  0  0  0
 27 22  4  0  0  0  0
 34 30  4  0  0  0  0
  1 35  1  0  0  0  0
  1 36  1  0  0  0  0
  1 37  1  0  0  0  0
  3 38  1  0  0  0  0
  3 39  1  0  0  0  0
  3 40  1  0  0  0  0
  4 41  1  0  0  0  0
  4 42  1  0  0  0  0
  4 43  1  0  0  0  0
  6 44  1  0  0  0  0
  7 45  1  0  0  0  0
  9 46  1  0  0  0  0
 10 47  1  0  0  0  0
 12 48  1  0  0  0  0
 15 49  1  0  0  0  0
 16 50  1  0  0  0  0
 17 51  1  0  0  0  0
 17 52  1  0  0  0  0
 18 53  1  0  0  0  0
 18 54  1  0  0  0  0
 19 55  1  0  0  0  0
 19 56  1  0  0  0  0
 20 57  1  0  0  0  0
 20 58  1  0  0  0  0
 21 59  1  0  0  0  0
 21 60  1  0  0  0  0
 23 61  1  0  0  0  0
 25 62  1  0  0  0  0
 26 63  1  0  0  0  0
 27 64  1  0  0  0  0
 31 65  1  0  0  0  0
 32 66  1  0  0  0  0
 33 67  1  0  0  0  0
M  END
> <Compound>
6a

>  <SMILE>
CC(C)(C)C1=CC=C(C=C1)N(C(C(=O)NC1CCCCC1)C1=CN=CC=C1)C(=O)C1=CC=CO1

> <Relation>
=

>  <IC50 (??M)>
2.39

> <Bond Type>
Non-covalent

> <References>
10.1101/2020.12.19.423537

> <Year>
2020

> <StandardizerResult>
Remove Explicit Hydrogens (ID: RemoveExplicitH)
Dearomatize (ID: Dearomatize)
Clear Stereo (ID: ClearStereo)
Wedge Clean (ID: WedgeClean)
Mesomerize (ID: Mesomerize)
Tautomerize (ID: Tautomerize)
Aromatize (ID: Aromatize)
Add Explicit Hydrogens (ID: AddExplicitH)
Neutralize (ID: Neutralize)
Clean 2D (ID: Clean2D)

> <Molecule (InChiKey)>
OXLNXQQCDCGFLH-UHFFFAOYSA-N

> <Outcome>
Active

> <IC50 (uM)>
2.39

> <SMILES>
CC(C)(C)C1=CC=C(C=C1)N(C(C(=O)NC1CCCCC1)C1=CN=CC=C1)C(=O)C1=CC=CO1

$$$$

  Mrv2016 04192109512D          

 67 70  0  0  0  0            999 V2000
   -3.2705   -2.6270    0.0000 C   0  0  0  0  0  0  0  0  0  0  0  0
   -2.4455   -2.6270    0.0000 C   0  0  0  0  0  0  0  0  0  0  0  0
   -2.0330   -1.9125    0.0000 N   0  0  0  0  0  0  0  0  0  0  0  0
   -1.2080   -1.9125    0.0000 C   0  0  0  0  0  0  0  0  0  0  0  0
   -0.7955   -2.6270    0.0000 O   0  0  0  0  0  0  0  0  0  0  0  0
   -0.7955   -1.1980    0.0000 C   0  0  0  0  0  0  0  0  0  0  0  0
    0.0295   -1.1980    0.0000 N   0  0  0  0  0  0  0  0  0  0  0  0
    0.4420   -1.9125    0.0000 C   0  0  0  0  0  0  0  0  0  0  0  0
    0.0295   -2.6270    0.0000 O   0  0  0  0  0  0  0  0  0  0  0  0
    1.2670   -1.9125    0.0000 C   0  0  0  0  0  0  0  0  0  0  0  0
    1.7519   -2.5800    0.0000 C   0  0  0  0  0  0  0  0  0  0  0  0
    2.5365   -2.3250    0.0000 C   0  0  0  0  0  0  0  0  0  0  0  0
    2.5365   -1.5000    0.0000 C   0  0  0  0  0  0  0  0  0  0  0  0
    1.7519   -1.2451    0.0000 O   0  0  0  0  0  0  0  0  0  0  0  0
    0.4420   -0.4836    0.0000 C   0  0  0  0  0  0  0  0  0  0  0  0
    0.0295    0.2309    0.0000 C   0  0  0  0  0  0  0  0  0  0  0  0
    0.4420    0.9454    0.0000 C   0  0  0  0  0  0  0  0  0  0  0  0
    1.2670    0.9454    0.0000 C   0  0  0  0  0  0  0  0  0  0  0  0
    1.6795    0.2309    0.0000 C   0  0  0  0  0  0  0  0  0  0  0  0
    1.2670   -0.4836    0.0000 C   0  0  0  0  0  0  0  0  0  0  0  0
    1.6795    1.6598    0.0000 S   0  0  0  0  0  0  0  0  0  0  0  0
    2.0920    2.3743    0.0000 C   0  0  0  0  0  0  0  0  0  0  0  0
    0.9650    2.0723    0.0000 C   0  0  0  0  0  0  0  0  0  0  0  0
    2.3939    1.2473    0.0000 C   0  0  0  0  0  0  0  0  0  0  0  0
   -1.2080   -0.4836    0.0000 C   0  0  0  0  0  0  0  0  0  0  0  0
   -2.0330   -0.4836    0.0000 C   0  0  0  0  0  0  0  0  0  0  0  0
   -2.4455    0.2309    0.0000 C   0  0  0  0  0  0  0  0  0  0  0  0
   -2.0330    0.9454    0.0000 C   0  0  0  0  0  0  0  0  0  0  0  0
   -1.2080    0.9454    0.0000 N   0  0  0  0  0  0  0  0  0  0  0  0
   -0.7955    0.2309    0.0000 C   0  0  0  0  0  0  0  0  0  0  0  0
   -2.0330   -3.3415    0.0000 C   0  0  0  0  0  0  0  0  0  0  0  0
   -1.2080   -3.3415    0.0000 C   0  0  0  0  0  0  0  0  0  0  0  0
   -0.7955   -4.0559    0.0000 C   0  0  0  0  0  0  0  0  0  0  0  0
   -1.2080   -4.7704    0.0000 C   0  0  0  0  0  0  0  0  0  0  0  0
   -2.0330   -4.7704    0.0000 C   0  0  0  0  0  0  0  0  0  0  0  0
   -2.4455   -4.0559    0.0000 C   0  0  0  0  0  0  0  0  0  0  0  0
   -3.2705   -1.8020    0.0000 H   0  0  0  0  0  0  0  0  0  0  0  0
   -4.0955   -2.6270    0.0000 H   0  0  0  0  0  0  0  0  0  0  0  0
   -3.2705   -3.4520    0.0000 H   0  0  0  0  0  0  0  0  0  0  0  0
   -2.8580   -1.9125    0.0000 H   0  0  0  0  0  0  0  0  0  0  0  0
   -2.0330   -1.0875    0.0000 H   0  0  0  0  0  0  0  0  0  0  0  0
   -0.3830   -1.9125    0.0000 H   0  0  0  0  0  0  0  0  0  0  0  0
    1.4970   -3.3646    0.0000 H   0  0  0  0  0  0  0  0  0  0  0  0
    3.2040   -2.8099    0.0000 H   0  0  0  0  0  0  0  0  0  0  0  0
    3.2040   -1.0151    0.0000 H   0  0  0  0  0  0  0  0  0  0  0  0
   -0.3830   -0.4836    0.0000 H   0  0  0  0  0  0  0  0  0  0  0  0
    0.0295    1.6598    0.0000 H   0  0  0  0  0  0  0  0  0  0  0  0
    2.5045    0.2309    0.0000 H   0  0  0  0  0  0  0  0  0  0  0  0
    0.8701   -1.2068    0.0000 H   0  0  0  0  0  0  0  0  0  0  0  0
    2.8064    1.9618    0.0000 H   0  0  0  0  0  0  0  0  0  0  0  0
    2.5045    3.0888    0.0000 H   0  0  0  0  0  0  0  0  0  0  0  0
    1.3775    2.7868    0.0000 H   0  0  0  0  0  0  0  0  0  0  0  0
    0.4628    2.7269    0.0000 H   0  0  0  0  0  0  0  0  0  0  0  0
    0.1681    1.8588    0.0000 H   0  0  0  0  0  0  0  0  0  0  0  0
    0.8573    1.2544    0.0000 H   0  0  0  0  0  0  0  0  0  0  0  0
    1.7394    0.7451    0.0000 H   0  0  0  0  0  0  0  0  0  0  0  0
    2.6075    0.4505    0.0000 H   0  0  0  0  0  0  0  0  0  0  0  0
    3.2119    1.1397    0.0000 H   0  0  0  0  0  0  0  0  0  0  0  0
   -2.8299   -0.6971    0.0000 H   0  0  0  0  0  0  0  0  0  0  0  0
   -3.2705    0.2309    0.0000 H   0  0  0  0  0  0  0  0  0  0  0  0
   -2.4455    1.6598    0.0000 H   0  0  0  0  0  0  0  0  0  0  0  0
   -1.6205    0.2309    0.0000 H   0  0  0  0  0  0  0  0  0  0  0  0
   -1.6205   -2.6270    0.0000 H   0  0  0  0  0  0  0  0  0  0  0  0
    0.0295   -4.0559    0.0000 H   0  0  0  0  0  0  0  0  0  0  0  0
   -0.7955   -5.4849    0.0000 H   0  0  0  0  0  0  0  0  0  0  0  0
   -2.4455   -5.4849    0.0000 H   0  0  0  0  0  0  0  0  0  0  0  0
   -3.2705   -4.0559    0.0000 H   0  0  0  0  0  0  0  0  0  0  0  0
  2  1  1  0  0  0  0
  2  3  1  0  0  0  0
  3  4  1  0  0  0  0
  4  5  2  0  0  0  0
  4  6  1  0  0  0  0
  6  7  1  0  0  0  0
  7  8  1  0  0  0  0
  8  9  2  0  0  0  0
  8 10  1  0  0  0  0
 10 11  4  0  0  0  0
 11 12  4  0  0  0  0
 12 13  4  0  0  0  0
 13 14  4  0  0  0  0
  7 15  1  0  0  0  0
 15 16  4  0  0  0  0
 16 17  4  0  0  0  0
 17 18  4  0  0  0  0
 18 19  4  0  0  0  0
 19 20  4  0  0  0  0
 18 21  1  0  0  0  0
 21 22  1  0  0  0  0
 21 23  1  0  0  0  0
 21 24  1  0  0  0  0
  6 25  1  0  0  0  0
 25 26  4  0  0  0  0
 26 27  4  0  0  0  0
 27 28  4  0  0  0  0
 28 29  4  0  0  0  0
 29 30  4  0  0  0  0
  2 31  1  0  0  0  0
 31 32  4  0  0  0  0
 32 33  4  0  0  0  0
 33 34  4  0  0  0  0
 34 35  4  0  0  0  0
 35 36  4  0  0  0  0
 14 10  4  0  0  0  0
 20 15  4  0  0  0  0
 30 25  4  0  0  0  0
 36 31  4  0  0  0  0
  1 37  1  0  0  0  0
  1 38  1  0  0  0  0
  1 39  1  0  0  0  0
  2 40  1  0  0  0  0
  3 41  1  0  0  0  0
  6 42  1  0  0  0  0
 11 43  1  0  0  0  0
 12 44  1  0  0  0  0
 13 45  1  0  0  0  0
 16 46  1  0  0  0  0
 17 47  1  0  0  0  0
 19 48  1  0  0  0  0
 20 49  1  0  0  0  0
 22 50  1  0  0  0  0
 22 51  1  0  0  0  0
 22 52  1  0  0  0  0
 23 53  1  0  0  0  0
 23 54  1  0  0  0  0
 23 55  1  0  0  0  0
 24 56  1  0  0  0  0
 24 57  1  0  0  0  0
 24 58  1  0  0  0  0
 26 59  1  0  0  0  0
 27 60  1  0  0  0  0
 28 61  1  0  0  0  0
 30 62  1  0  0  0  0
 32 63  1  0  0  0  0
 33 64  1  0  0  0  0
 34 65  1  0  0  0  0
 35 66  1  0  0  0  0
 36 67  1  0  0  0  0
M  END
> <Compound>
14a

>  <SMILE>
C[C@H](NC(=O)C(N(C(=O)C1=CC=CO1)C1=CC=C(C=C1)S(C)(C)C)C1=CC=CN=C1)C1=CC=CC=C1

> <Relation>
=

>  <IC50 (??M)>
1.97

> <Bond Type>
Non-covalent

> <References>
10.1101/2020.12.19.423537

> <Year>
2020

> <StandardizerResult>
Remove Explicit Hydrogens (ID: RemoveExplicitH)
Dearomatize (ID: Dearomatize)
Clear Stereo (ID: ClearStereo)
Wedge Clean (ID: WedgeClean)
Mesomerize (ID: Mesomerize)
Tautomerize (ID: Tautomerize)
Aromatize (ID: Aromatize)
Add Explicit Hydrogens (ID: AddExplicitH)
Neutralize (ID: Neutralize)
Clean 2D (ID: Clean2D)

> <Molecule (InChiKey)>
PIFHQSBCLTXKOL-UHFFFAOYSA-N

> <Outcome>
Active

> <IC50 (uM)>
1.97

> <SMILES>
C[C@H](NC(=O)C(N(C(=O)C1=CC=CO1)C1=CC=C(C=C1)S(C)(C)C)C1=CC=CN=C1)C1=CC=CC=C1

$$$$

  Mrv2016 04192109512D          

 71 75  0  0  0  0            999 V2000
   -3.6273   -2.6835    0.0000 C   0  0  0  0  0  0  0  0  0  0  0  0
   -2.8023   -2.6835    0.0000 C   0  0  0  0  0  0  0  0  0  0  0  0
   -2.3898   -1.9690    0.0000 N   0  0  0  0  0  0  0  0  0  0  0  0
   -1.5648   -1.9690    0.0000 C   0  0  0  0  0  0  0  0  0  0  0  0
   -1.1523   -2.6835    0.0000 O   0  0  0  0  0  0  0  0  0  0  0  0
   -1.1523   -1.2546    0.0000 C   0  0  0  0  0  0  0  0  0  0  0  0
   -0.3273   -1.2546    0.0000 N   0  0  0  0  0  0  0  0  0  0  0  0
    0.0852   -1.9690    0.0000 C   0  0  0  0  0  0  0  0  0  0  0  0
   -0.3273   -2.6835    0.0000 O   0  0  0  0  0  0  0  0  0  0  0  0
    0.9102   -1.9690    0.0000 C   0  0  0  0  0  0  0  0  0  0  0  0
    1.3952   -2.6365    0.0000 C   0  0  0  0  0  0  0  0  0  0  0  0
    2.1798   -2.3815    0.0000 C   0  0  0  0  0  0  0  0  0  0  0  0
    2.1798   -1.5565    0.0000 C   0  0  0  0  0  0  0  0  0  0  0  0
    1.3952   -1.3016    0.0000 O   0  0  0  0  0  0  0  0  0  0  0  0
    0.0852   -0.5401    0.0000 C   0  0  0  0  0  0  0  0  0  0  0  0
   -0.3273    0.1744    0.0000 C   0  0  0  0  0  0  0  0  0  0  0  0
    0.0852    0.8888    0.0000 C   0  0  0  0  0  0  0  0  0  0  0  0
    0.9102    0.8888    0.0000 C   0  0  0  0  0  0  0  0  0  0  0  0
    1.3227    0.1744    0.0000 C   0  0  0  0  0  0  0  0  0  0  0  0
    0.9102   -0.5401    0.0000 C   0  0  0  0  0  0  0  0  0  0  0  0
    1.3227    1.6033    0.0000 C   0  0  0  0  0  0  0  0  0  0  0  0
    0.9102    2.3178    0.0000 C   0  0  0  0  0  0  0  0  0  0  0  0
    1.3227    3.0322    0.0000 C   0  0  0  0  0  0  0  0  0  0  0  0
    2.1477    3.0322    0.0000 C   0  0  0  0  0  0  0  0  0  0  0  0
    2.5602    2.3178    0.0000 C   0  0  0  0  0  0  0  0  0  0  0  0
    2.1477    1.6033    0.0000 C   0  0  0  0  0  0  0  0  0  0  0  0
   -1.5648   -0.5401    0.0000 C   0  0  0  0  0  0  0  0  0  0  0  0
   -2.3898   -0.5401    0.0000 C   0  0  0  0  0  0  0  0  0  0  0  0
   -2.8023    0.1744    0.0000 C   0  0  0  0  0  0  0  0  0  0  0  0
   -2.3898    0.8888    0.0000 C   0  0  0  0  0  0  0  0  0  0  0  0
   -1.5648    0.8888    0.0000 N   0  0  0  0  0  0  0  0  0  0  0  0
   -1.1523    0.1744    0.0000 C   0  0  0  0  0  0  0  0  0  0  0  0
   -2.3898   -3.3980    0.0000 C   0  0  0  0  0  0  0  0  0  0  0  0
   -1.5648   -3.3980    0.0000 C   0  0  0  0  0  0  0  0  0  0  0  0
   -1.1523   -4.1125    0.0000 C   0  0  0  0  0  0  0  0  0  0  0  0
   -1.5648   -4.8269    0.0000 C   0  0  0  0  0  0  0  0  0  0  0  0
   -2.3898   -4.8269    0.0000 C   0  0  0  0  0  0  0  0  0  0  0  0
   -2.8023   -4.1125    0.0000 C   0  0  0  0  0  0  0  0  0  0  0  0
   -3.6273   -1.8585    0.0000 H   0  0  0  0  0  0  0  0  0  0  0  0
   -4.4523   -2.6835    0.0000 H   0  0  0  0  0  0  0  0  0  0  0  0
   -3.6273   -3.5085    0.0000 H   0  0  0  0  0  0  0  0  0  0  0  0
   -3.2148   -1.9690    0.0000 H   0  0  0  0  0  0  0  0  0  0  0  0
   -2.3898   -1.1440    0.0000 H   0  0  0  0  0  0  0  0  0  0  0  0
   -0.7398   -1.9690    0.0000 H   0  0  0  0  0  0  0  0  0  0  0  0
    1.1402   -3.4211    0.0000 H   0  0  0  0  0  0  0  0  0  0  0  0
    2.8472   -2.8665    0.0000 H   0  0  0  0  0  0  0  0  0  0  0  0
    2.8472   -1.0716    0.0000 H   0  0  0  0  0  0  0  0  0  0  0  0
   -0.7398   -0.5401    0.0000 H   0  0  0  0  0  0  0  0  0  0  0  0
   -0.3273    1.6033    0.0000 H   0  0  0  0  0  0  0  0  0  0  0  0
    2.1477    0.1744    0.0000 H   0  0  0  0  0  0  0  0  0  0  0  0
    0.5134   -1.2634    0.0000 H   0  0  0  0  0  0  0  0  0  0  0  0
    1.7352    0.8888    0.0000 H   0  0  0  0  0  0  0  0  0  0  0  0
    0.1730    2.6880    0.0000 H   0  0  0  0  0  0  0  0  0  0  0  0
    0.1730    1.9475    0.0000 H   0  0  0  0  0  0  0  0  0  0  0  0
    1.2748    3.8559    0.0000 H   0  0  0  0  0  0  0  0  0  0  0  0
    0.6335    3.4856    0.0000 H   0  0  0  0  0  0  0  0  0  0  0  0
    2.8370    3.4856    0.0000 H   0  0  0  0  0  0  0  0  0  0  0  0
    2.1957    3.8559    0.0000 H   0  0  0  0  0  0  0  0  0  0  0  0
    3.2975    1.9475    0.0000 H   0  0  0  0  0  0  0  0  0  0  0  0
    3.2975    2.6880    0.0000 H   0  0  0  0  0  0  0  0  0  0  0  0
    2.6780    0.9713    0.0000 H   0  0  0  0  0  0  0  0  0  0  0  0
    2.9602    1.4600    0.0000 H   0  0  0  0  0  0  0  0  0  0  0  0
   -3.1866   -0.7536    0.0000 H   0  0  0  0  0  0  0  0  0  0  0  0
   -3.6273    0.1744    0.0000 H   0  0  0  0  0  0  0  0  0  0  0  0
   -2.8023    1.6033    0.0000 H   0  0  0  0  0  0  0  0  0  0  0  0
   -1.9773    0.1744    0.0000 H   0  0  0  0  0  0  0  0  0  0  0  0
   -1.9773   -2.6835    0.0000 H   0  0  0  0  0  0  0  0  0  0  0  0
   -0.3273   -4.1125    0.0000 H   0  0  0  0  0  0  0  0  0  0  0  0
   -1.1523   -5.5414    0.0000 H   0  0  0  0  0  0  0  0  0  0  0  0
   -2.8023   -5.5414    0.0000 H   0  0  0  0  0  0  0  0  0  0  0  0
   -3.6273   -4.1125    0.0000 H   0  0  0  0  0  0  0  0  0  0  0  0
  2  1  1  0  0  0  0
  2  3  1  0  0  0  0
  3  4  1  0  0  0  0
  4  5  2  0  0  0  0
  4  6  1  0  0  0  0
  6  7  1  0  0  0  0
  7  8  1  0  0  0  0
  8  9  2  0  0  0  0
  8 10  1  0  0  0  0
 10 11  4  0  0  0  0
 11 12  4  0  0  0  0
 12 13  4  0  0  0  0
 13 14  4  0  0  0  0
  7 15  1  0  0  0  0
 15 16  4  0  0  0  0
 16 17  4  0  0  0  0
 17 18  4  0  0  0  0
 18 19  4  0  0  0  0
 19 20  4  0  0  0  0
 18 21  1  0  0  0  0
 21 22  1  0  0  0  0
 22 23  1  0  0  0  0
 23 24  1  0  0  0  0
 24 25  1  0  0  0  0
 25 26  1  0  0  0  0
  6 27  1  0  0  0  0
 27 28  4  0  0  0  0
 28 29  4  0  0  0  0
 29 30  4  0  0  0  0
 30 31  4  0  0  0  0
 31 32  4  0  0  0  0
  2 33  1  0  0  0  0
 33 34  4  0  0  0  0
 34 35  4  0  0  0  0
 35 36  4  0  0  0  0
 36 37  4  0  0  0  0
 37 38  4  0  0  0  0
 14 10  4  0  0  0  0
 20 15  4  0  0  0  0
 26 21  1  0  0  0  0
 32 27  4  0  0  0  0
 38 33  4  0  0  0  0
  1 39  1  0  0  0  0
  1 40  1  0  0  0  0
  1 41  1  0  0  0  0
  2 42  1  0  0  0  0
  3 43  1  0  0  0  0
  6 44  1  0  0  0  0
 11 45  1  0  0  0  0
 12 46  1  0  0  0  0
 13 47  1  0  0  0  0
 16 48  1  0  0  0  0
 17 49  1  0  0  0  0
 19 50  1  0  0  0  0
 20 51  1  0  0  0  0
 21 52  1  0  0  0  0
 22 53  1  0  0  0  0
 22 54  1  0  0  0  0
 23 55  1  0  0  0  0
 23 56  1  0  0  0  0
 24 57  1  0  0  0  0
 24 58  1  0  0  0  0
 25 59  1  0  0  0  0
 25 60  1  0  0  0  0
 26 61  1  0  0  0  0
 26 62  1  0  0  0  0
 28 63  1  0  0  0  0
 29 64  1  0  0  0  0
 30 65  1  0  0  0  0
 32 66  1  0  0  0  0
 34 67  1  0  0  0  0
 35 68  1  0  0  0  0
 36 69  1  0  0  0  0
 37 70  1  0  0  0  0
 38 71  1  0  0  0  0
M  END
> <Compound>
17a

>  <SMILE>
C[C@H](NC(=O)C(N(C(=O)C1=CC=CO1)C1=CC=C(C=C1)C1CCCCC1)C1=CC=CN=C1)C1=CC=CC=C1

> <Relation>
=

>  <IC50 (??M)>
0.51

> <Bond Type>
Non-covalent

> <References>
10.1101/2020.12.19.423537

> <Year>
2020

> <StandardizerResult>
Remove Explicit Hydrogens (ID: RemoveExplicitH)
Dearomatize (ID: Dearomatize)
Clear Stereo (ID: ClearStereo)
Wedge Clean (ID: WedgeClean)
Mesomerize (ID: Mesomerize)
Tautomerize (ID: Tautomerize)
Aromatize (ID: Aromatize)
Add Explicit Hydrogens (ID: AddExplicitH)
Neutralize (ID: Neutralize)
Clean 2D (ID: Clean2D)

> <Molecule (InChiKey)>
POPWPHIGQFWRDK-UHFFFAOYSA-N

> <Outcome>
Active

> <IC50 (uM)>
0.51

> <SMILES>
C[C@H](NC(=O)C(N(C(=O)C1=CC=CO1)C1=CC=C(C=C1)C1CCCCC1)C1=CC=CN=C1)C1=CC=CC=C1

$$$$

  Mrv2016 04192109512D          

 58 62  0  0  0  0            999 V2000
    1.5365    4.2730    0.0000 C   0  0  0  0  0  0  0  0  0  0  0  0
    1.5365    3.4480    0.0000 C   0  0  0  0  0  0  0  0  0  0  0  0
    2.2510    3.0355    0.0000 C   0  0  0  0  0  0  0  0  0  0  0  0
    2.2510    2.2105    0.0000 C   0  0  0  0  0  0  0  0  0  0  0  0
    1.5365    1.7980    0.0000 C   0  0  0  0  0  0  0  0  0  0  0  0
    0.8221    2.2105    0.0000 C   0  0  0  0  0  0  0  0  0  0  0  0
    0.1076    1.7980    0.0000 C   0  0  0  0  0  0  0  0  0  0  0  0
   -0.6069    2.2105    0.0000 O   0  0  0  0  0  0  0  0  0  0  0  0
   -1.3214    1.7980    0.0000 C   0  0  0  0  0  0  0  0  0  0  0  0
   -1.3214    0.9730    0.0000 C   0  0  0  0  0  0  0  0  0  0  0  0
   -2.0358    0.5605    0.0000 C   0  0  0  0  0  0  0  0  0  0  0  0
   -2.0358   -0.2645    0.0000 Cl  0  0  0  0  0  0  0  0  0  0  0  0
   -2.7503    0.9730    0.0000 C   0  0  0  0  0  0  0  0  0  0  0  0
   -2.7503    1.7980    0.0000 C   0  0  0  0  0  0  0  0  0  0  0  0
   -2.0358    2.2105    0.0000 C   0  0  0  0  0  0  0  0  0  0  0  0
   -3.4648    2.2105    0.0000 C   0  0  0  0  0  0  0  0  0  0  0  0
   -4.1792    1.7980    0.0000 C   0  0  0  0  0  0  0  0  0  0  0  0
   -4.8937    2.2105    0.0000 C   0  0  0  0  0  0  0  0  0  0  0  0
   -4.8937    3.0355    0.0000 C   0  0  0  0  0  0  0  0  0  0  0  0
   -4.1792    3.4480    0.0000 N   0  0  0  0  0  0  0  0  0  0  0  0
   -3.4648    3.0355    0.0000 C   0  0  0  0  0  0  0  0  0  0  0  0
   -2.7503    3.4480    0.0000 O   0  0  0  0  0  0  0  0  0  0  0  0
   -4.1792    4.2730    0.0000 C   0  0  0  0  0  0  0  0  0  0  0  0
   -4.8937    4.6855    0.0000 C   0  0  0  0  0  0  0  0  0  0  0  0
   -4.8937    5.5105    0.0000 N   0  0  0  0  0  0  0  0  0  0  0  0
   -4.1792    5.9230    0.0000 C   0  0  0  0  0  0  0  0  0  0  0  0
   -3.4648    5.5105    0.0000 C   0  0  0  0  0  0  0  0  0  0  0  0
   -3.4648    4.6855    0.0000 C   0  0  0  0  0  0  0  0  0  0  0  0
   -5.6082    1.7980    0.0000 C   0  0  0  0  0  0  0  0  0  0  0  0
   -5.6082    0.9730    0.0000 C   0  0  0  0  0  0  0  0  0  0  0  0
   -6.3227    0.5605    0.0000 N   0  0  0  0  0  0  0  0  0  0  0  0
   -7.0371    0.9730    0.0000 C   0  0  0  0  0  0  0  0  0  0  0  0
   -7.7516    0.5605    0.0000 O   0  0  0  0  0  0  0  0  0  0  0  0
   -7.0371    1.7980    0.0000 N   0  0  0  0  0  0  0  0  0  0  0  0
   -6.3227    2.2105    0.0000 C   0  0  0  0  0  0  0  0  0  0  0  0
   -6.3227    3.0355    0.0000 O   0  0  0  0  0  0  0  0  0  0  0  0
    0.8221    3.0355    0.0000 C   0  0  0  0  0  0  0  0  0  0  0  0
    2.3615    4.2730    0.0000 H   0  0  0  0  0  0  0  0  0  0  0  0
    1.5365    5.0980    0.0000 H   0  0  0  0  0  0  0  0  0  0  0  0
    0.7115    4.2730    0.0000 H   0  0  0  0  0  0  0  0  0  0  0  0
    2.9655    3.4480    0.0000 H   0  0  0  0  0  0  0  0  0  0  0  0
    2.9655    1.7980    0.0000 H   0  0  0  0  0  0  0  0  0  0  0  0
    1.5365    0.9730    0.0000 H   0  0  0  0  0  0  0  0  0  0  0  0
   -0.2627    1.0608    0.0000 H   0  0  0  0  0  0  0  0  0  0  0  0
    0.4778    1.0608    0.0000 H   0  0  0  0  0  0  0  0  0  0  0  0
   -0.6069    0.5605    0.0000 H   0  0  0  0  0  0  0  0  0  0  0  0
   -3.4648    0.5605    0.0000 H   0  0  0  0  0  0  0  0  0  0  0  0
   -2.0358    3.0355    0.0000 H   0  0  0  0  0  0  0  0  0  0  0  0
   -4.1792    0.9730    0.0000 H   0  0  0  0  0  0  0  0  0  0  0  0
   -5.6082    3.4480    0.0000 H   0  0  0  0  0  0  0  0  0  0  0  0
   -5.6082    4.2730    0.0000 H   0  0  0  0  0  0  0  0  0  0  0  0
   -4.1792    6.7480    0.0000 H   0  0  0  0  0  0  0  0  0  0  0  0
   -2.7503    5.9230    0.0000 H   0  0  0  0  0  0  0  0  0  0  0  0
   -2.7503    4.2730    0.0000 H   0  0  0  0  0  0  0  0  0  0  0  0
   -4.8937    0.5605    0.0000 H   0  0  0  0  0  0  0  0  0  0  0  0
   -6.3227   -0.2645    0.0000 H   0  0  0  0  0  0  0  0  0  0  0  0
   -7.7516    2.2105    0.0000 H   0  0  0  0  0  0  0  0  0  0  0  0
    0.1076    3.4480    0.0000 H   0  0  0  0  0  0  0  0  0  0  0  0
  1  2  1  0  0  0  0
  2  3  4  0  0  0  0
  3  4  4  0  0  0  0
  4  5  4  0  0  0  0
  5  6  4  0  0  0  0
  6  7  1  0  0  0  0
  7  8  1  0  0  0  0
  8  9  1  0  0  0  0
  9 10  4  0  0  0  0
 10 11  4  0  0  0  0
 11 12  1  0  0  0  0
 11 13  4  0  0  0  0
 13 14  4  0  0  0  0
 14 15  4  0  0  0  0
 14 16  1  0  0  0  0
 16 17  2  0  0  0  0
 17 18  1  0  0  0  0
 18 19  2  0  0  0  0
 19 20  1  0  0  0  0
 20 21  1  0  0  0  0
 21 22  2  0  0  0  0
 20 23  1  0  0  0  0
 23 24  4  0  0  0  0
 24 25  4  0  0  0  0
 25 26  4  0  0  0  0
 26 27  4  0  0  0  0
 27 28  4  0  0  0  0
 18 29  1  0  0  0  0
 29 30  2  0  0  0  0
 30 31  1  0  0  0  0
 31 32  1  0  0  0  0
 32 33  2  0  0  0  0
 32 34  1  0  0  0  0
 34 35  1  0  0  0  0
 35 36  2  0  0  0  0
  6 37  4  0  0  0  0
 37  2  4  0  0  0  0
 15  9  4  0  0  0  0
 21 16  1  0  0  0  0
 28 23  4  0  0  0  0
 35 29  1  0  0  0  0
  1 38  1  0  0  0  0
  1 39  1  0  0  0  0
  1 40  1  0  0  0  0
  3 41  1  0  0  0  0
  4 42  1  0  0  0  0
  5 43  1  0  0  0  0
  7 44  1  0  0  0  0
  7 45  1  0  0  0  0
 10 46  1  0  0  0  0
 13 47  1  0  0  0  0
 15 48  1  0  0  0  0
 17 49  1  0  0  0  0
 19 50  1  0  0  0  0
 24 51  1  0  0  0  0
 26 52  1  0  0  0  0
 27 53  1  0  0  0  0
 28 54  1  0  0  0  0
 30 55  1  0  0  0  0
 31 56  1  0  0  0  0
 34 57  1  0  0  0  0
 37 58  1  0  0  0  0
M  END
> <Compound>
17

>  <SMILE>
CC1=CC=CC(COC2=CC(Cl)=CC(=C2)C2=CC(=CN(C2=O)C2=CN=CC=C2)C2=CNC(=O)NC2=O)=C1

> <Relation>
=

>  <IC50 (??M)>
0.11

> <Bond Type>
Non-covalent

> <References>
https://doi.org/10.1021/acscentsci.1c00039

> <Year>
2020

> <StandardizerResult>
Remove Explicit Hydrogens (ID: RemoveExplicitH)
Dearomatize (ID: Dearomatize)
Clear Stereo (ID: ClearStereo)
Wedge Clean (ID: WedgeClean)
Mesomerize (ID: Mesomerize)
Tautomerize (ID: Tautomerize)
Aromatize (ID: Aromatize)
Add Explicit Hydrogens (ID: AddExplicitH)
Neutralize (ID: Neutralize)
Clean 2D (ID: Clean2D)

> <Molecule (InChiKey)>
RTUXHKBGIXAWJQ-UHFFFAOYSA-N

> <Outcome>
Active

> <IC50 (uM)>
0.11

> <SMILES>
CC1=CC=CC(COC2=CC(Cl)=CC(=C2)C2=CC(=CN(C2=O)C2=CN=CC=C2)C2=CNC(=O)NC2=O)=C1

$$$$

  Mrv2016 04192109512D          

 65 69  0  0  0  0            999 V2000
   -3.3116   -2.6724    0.0000 C   0  0  0  0  0  0  0  0  0  0  0  0
   -2.4866   -2.6724    0.0000 C   0  0  0  0  0  0  0  0  0  0  0  0
   -2.0741   -1.9580    0.0000 N   0  0  0  0  0  0  0  0  0  0  0  0
   -1.2491   -1.9580    0.0000 C   0  0  0  0  0  0  0  0  0  0  0  0
   -0.8366   -2.6724    0.0000 O   0  0  0  0  0  0  0  0  0  0  0  0
   -0.8366   -1.2435    0.0000 C   0  0  0  0  0  0  0  0  0  0  0  0
   -0.0116   -1.2435    0.0000 N   0  0  0  0  0  0  0  0  0  0  0  0
    0.4009   -1.9580    0.0000 C   0  0  0  0  0  0  0  0  0  0  0  0
   -0.0116   -2.6724    0.0000 O   0  0  0  0  0  0  0  0  0  0  0  0
    1.2259   -1.9580    0.0000 C   0  0  0  0  0  0  0  0  0  0  0  0
    1.7108   -2.6254    0.0000 C   0  0  0  0  0  0  0  0  0  0  0  0
    2.4955   -2.3705    0.0000 C   0  0  0  0  0  0  0  0  0  0  0  0
    2.4955   -1.5455    0.0000 C   0  0  0  0  0  0  0  0  0  0  0  0
    1.7108   -1.2905    0.0000 O   0  0  0  0  0  0  0  0  0  0  0  0
    0.4009   -0.5290    0.0000 C   0  0  0  0  0  0  0  0  0  0  0  0
   -0.0116    0.1855    0.0000 C   0  0  0  0  0  0  0  0  0  0  0  0
    0.4009    0.8999    0.0000 C   0  0  0  0  0  0  0  0  0  0  0  0
    1.2259    0.8999    0.0000 C   0  0  0  0  0  0  0  0  0  0  0  0
    1.6384    0.1855    0.0000 C   0  0  0  0  0  0  0  0  0  0  0  0
    1.2259   -0.5290    0.0000 C   0  0  0  0  0  0  0  0  0  0  0  0
    1.6384    1.6144    0.0000 C   0  0  0  0  0  0  0  0  0  0  0  0
    1.2259    2.3289    0.0000 C   0  0  0  0  0  0  0  0  0  0  0  0
    1.6384    3.0433    0.0000 C   0  0  0  0  0  0  0  0  0  0  0  0
    2.4634    3.0433    0.0000 C   0  0  0  0  0  0  0  0  0  0  0  0
    2.8759    2.3289    0.0000 C   0  0  0  0  0  0  0  0  0  0  0  0
    2.4634    1.6144    0.0000 C   0  0  0  0  0  0  0  0  0  0  0  0
   -1.2491   -0.5290    0.0000 C   0  0  0  0  0  0  0  0  0  0  0  0
   -2.0741   -0.5290    0.0000 C   0  0  0  0  0  0  0  0  0  0  0  0
   -2.4866    0.1855    0.0000 C   0  0  0  0  0  0  0  0  0  0  0  0
   -2.0741    0.8999    0.0000 C   0  0  0  0  0  0  0  0  0  0  0  0
   -1.2491    0.8999    0.0000 N   0  0  0  0  0  0  0  0  0  0  0  0
   -0.8366    0.1855    0.0000 C   0  0  0  0  0  0  0  0  0  0  0  0
   -2.0741   -3.3869    0.0000 C   0  0  0  0  0  0  0  0  0  0  0  0
   -1.2491   -3.3869    0.0000 C   0  0  0  0  0  0  0  0  0  0  0  0
   -0.8366   -4.1014    0.0000 C   0  0  0  0  0  0  0  0  0  0  0  0
   -1.2491   -4.8158    0.0000 C   0  0  0  0  0  0  0  0  0  0  0  0
   -2.0741   -4.8158    0.0000 C   0  0  0  0  0  0  0  0  0  0  0  0
   -2.4866   -4.1014    0.0000 C   0  0  0  0  0  0  0  0  0  0  0  0
   -3.3116   -1.8474    0.0000 H   0  0  0  0  0  0  0  0  0  0  0  0
   -4.1366   -2.6724    0.0000 H   0  0  0  0  0  0  0  0  0  0  0  0
   -3.3116   -3.4974    0.0000 H   0  0  0  0  0  0  0  0  0  0  0  0
   -2.8991   -1.9580    0.0000 H   0  0  0  0  0  0  0  0  0  0  0  0
   -2.0741   -1.1330    0.0000 H   0  0  0  0  0  0  0  0  0  0  0  0
   -0.4241   -1.9580    0.0000 H   0  0  0  0  0  0  0  0  0  0  0  0
    1.4559   -3.4100    0.0000 H   0  0  0  0  0  0  0  0  0  0  0  0
    3.1629   -2.8554    0.0000 H   0  0  0  0  0  0  0  0  0  0  0  0
    3.1629   -1.0605    0.0000 H   0  0  0  0  0  0  0  0  0  0  0  0
   -0.4241   -0.5290    0.0000 H   0  0  0  0  0  0  0  0  0  0  0  0
   -0.0116    1.6144    0.0000 H   0  0  0  0  0  0  0  0  0  0  0  0
    2.4634    0.1855    0.0000 H   0  0  0  0  0  0  0  0  0  0  0  0
    0.8290   -1.2523    0.0000 H   0  0  0  0  0  0  0  0  0  0  0  0
    0.4009    2.3289    0.0000 H   0  0  0  0  0  0  0  0  0  0  0  0
    1.2259    3.7578    0.0000 H   0  0  0  0  0  0  0  0  0  0  0  0
    2.8759    3.7578    0.0000 H   0  0  0  0  0  0  0  0  0  0  0  0
    3.7009    2.3289    0.0000 H   0  0  0  0  0  0  0  0  0  0  0  0
    2.8759    0.8999    0.0000 H   0  0  0  0  0  0  0  0  0  0  0  0
   -2.8710   -0.7425    0.0000 H   0  0  0  0  0  0  0  0  0  0  0  0
   -3.3116    0.1855    0.0000 H   0  0  0  0  0  0  0  0  0  0  0  0
   -2.4866    1.6144    0.0000 H   0  0  0  0  0  0  0  0  0  0  0  0
   -1.6616    0.1855    0.0000 H   0  0  0  0  0  0  0  0  0  0  0  0
   -1.6616   -2.6724    0.0000 H   0  0  0  0  0  0  0  0  0  0  0  0
   -0.0116   -4.1014    0.0000 H   0  0  0  0  0  0  0  0  0  0  0  0
   -0.8366   -5.5303    0.0000 H   0  0  0  0  0  0  0  0  0  0  0  0
   -2.4866   -5.5303    0.0000 H   0  0  0  0  0  0  0  0  0  0  0  0
   -3.3116   -4.1014    0.0000 H   0  0  0  0  0  0  0  0  0  0  0  0
  2  1  1  0  0  0  0
  2  3  1  0  0  0  0
  3  4  1  0  0  0  0
  4  5  2  0  0  0  0
  4  6  1  0  0  0  0
  6  7  1  0  0  0  0
  7  8  1  0  0  0  0
  8  9  2  0  0  0  0
  8 10  1  0  0  0  0
 10 11  4  0  0  0  0
 11 12  4  0  0  0  0
 12 13  4  0  0  0  0
 13 14  4  0  0  0  0
  7 15  1  0  0  0  0
 15 16  4  0  0  0  0
 16 17  4  0  0  0  0
 17 18  4  0  0  0  0
 18 19  4  0  0  0  0
 19 20  4  0  0  0  0
 18 21  1  0  0  0  0
 21 22  4  0  0  0  0
 22 23  4  0  0  0  0
 23 24  4  0  0  0  0
 24 25  4  0  0  0  0
 25 26  4  0  0  0  0
  6 27  1  0  0  0  0
 27 28  4  0  0  0  0
 28 29  4  0  0  0  0
 29 30  4  0  0  0  0
 30 31  4  0  0  0  0
 31 32  4  0  0  0  0
  2 33  1  0  0  0  0
 33 34  4  0  0  0  0
 34 35  4  0  0  0  0
 35 36  4  0  0  0  0
 36 37  4  0  0  0  0
 37 38  4  0  0  0  0
 14 10  4  0  0  0  0
 20 15  4  0  0  0  0
 26 21  4  0  0  0  0
 32 27  4  0  0  0  0
 38 33  4  0  0  0  0
  1 39  1  0  0  0  0
  1 40  1  0  0  0  0
  1 41  1  0  0  0  0
  2 42  1  0  0  0  0
  3 43  1  0  0  0  0
  6 44  1  0  0  0  0
 11 45  1  0  0  0  0
 12 46  1  0  0  0  0
 13 47  1  0  0  0  0
 16 48  1  0  0  0  0
 17 49  1  0  0  0  0
 19 50  1  0  0  0  0
 20 51  1  0  0  0  0
 22 52  1  0  0  0  0
 23 53  1  0  0  0  0
 24 54  1  0  0  0  0
 25 55  1  0  0  0  0
 26 56  1  0  0  0  0
 28 57  1  0  0  0  0
 29 58  1  0  0  0  0
 30 59  1  0  0  0  0
 32 60  1  0  0  0  0
 34 61  1  0  0  0  0
 35 62  1  0  0  0  0
 36 63  1  0  0  0  0
 37 64  1  0  0  0  0
 38 65  1  0  0  0  0
M  END
> <Compound>
23a

>  <SMILE>
C[C@H](NC(=O)C(N(C(=O)C1=CC=CO1)C1=CC=C(C=C1)C1=CC=CC=C1)C1=CC=CN=C1)C1=CC=CC=C1

> <Relation>
=

>  <IC50 (??M)>
0.66

> <Bond Type>
Non-covalent

> <References>
10.1101/2020.12.19.423537

> <Year>
2020

> <StandardizerResult>
Remove Explicit Hydrogens (ID: RemoveExplicitH)
Dearomatize (ID: Dearomatize)
Clear Stereo (ID: ClearStereo)
Wedge Clean (ID: WedgeClean)
Mesomerize (ID: Mesomerize)
Tautomerize (ID: Tautomerize)
Aromatize (ID: Aromatize)
Add Explicit Hydrogens (ID: AddExplicitH)
Neutralize (ID: Neutralize)
Clean 2D (ID: Clean2D)

> <Molecule (InChiKey)>
RYGJIKURQDMMQZ-UHFFFAOYSA-N

> <Outcome>
Active

> <IC50 (uM)>
0.66

> <SMILES>
C[C@H](NC(=O)C(N(C(=O)C1=CC=CO1)C1=CC=C(C=C1)C1=CC=CC=C1)C1=CC=CN=C1)C1=CC=CC=C1

$$$$

  Mrv2016 04192109512D          

 65 69  0  0  0  0            999 V2000
   -3.3364   -2.7249    0.0000 C   0  0  0  0  0  0  0  0  0  0  0  0
   -2.5114   -2.7249    0.0000 C   0  0  0  0  0  0  0  0  0  0  0  0
   -2.0989   -2.0104    0.0000 N   0  0  0  0  0  0  0  0  0  0  0  0
   -1.2739   -2.0104    0.0000 C   0  0  0  0  0  0  0  0  0  0  0  0
   -0.8614   -2.7249    0.0000 O   0  0  0  0  0  0  0  0  0  0  0  0
   -0.8614   -1.2960    0.0000 C   0  0  0  0  0  0  0  0  0  0  0  0
   -0.0364   -1.2960    0.0000 N   0  0  0  0  0  0  0  0  0  0  0  0
    0.3761   -2.0104    0.0000 C   0  0  0  0  0  0  0  0  0  0  0  0
   -0.0364   -2.7249    0.0000 O   0  0  0  0  0  0  0  0  0  0  0  0
    1.2011   -2.0104    0.0000 C   0  0  0  0  0  0  0  0  0  0  0  0
    1.6860   -2.6779    0.0000 C   0  0  0  0  0  0  0  0  0  0  0  0
    2.4706   -2.4229    0.0000 N   0  0  0  0  0  0  0  0  0  0  0  0
    2.4706   -1.5979    0.0000 C   0  0  0  0  0  0  0  0  0  0  0  0
    1.6860   -1.3430    0.0000 N   0  0  0  0  0  0  0  0  0  0  0  0
    0.3761   -0.5815    0.0000 C   0  0  0  0  0  0  0  0  0  0  0  0
   -0.0364    0.1330    0.0000 C   0  0  0  0  0  0  0  0  0  0  0  0
    0.3761    0.8475    0.0000 C   0  0  0  0  0  0  0  0  0  0  0  0
    1.2011    0.8475    0.0000 C   0  0  0  0  0  0  0  0  0  0  0  0
    1.6136    0.1330    0.0000 C   0  0  0  0  0  0  0  0  0  0  0  0
    1.2011   -0.5815    0.0000 C   0  0  0  0  0  0  0  0  0  0  0  0
    1.6136    1.5619    0.0000 C   0  0  0  0  0  0  0  0  0  0  0  0
    1.2011    2.2764    0.0000 C   0  0  0  0  0  0  0  0  0  0  0  0
    1.6136    2.9909    0.0000 C   0  0  0  0  0  0  0  0  0  0  0  0
    2.4386    2.9909    0.0000 C   0  0  0  0  0  0  0  0  0  0  0  0
    2.8511    2.2764    0.0000 C   0  0  0  0  0  0  0  0  0  0  0  0
    2.4386    1.5619    0.0000 C   0  0  0  0  0  0  0  0  0  0  0  0
   -1.2739   -0.5815    0.0000 C   0  0  0  0  0  0  0  0  0  0  0  0
   -2.0989   -0.5815    0.0000 C   0  0  0  0  0  0  0  0  0  0  0  0
   -2.5114    0.1330    0.0000 C   0  0  0  0  0  0  0  0  0  0  0  0
   -2.0989    0.8475    0.0000 C   0  0  0  0  0  0  0  0  0  0  0  0
   -1.2739    0.8475    0.0000 N   0  0  0  0  0  0  0  0  0  0  0  0
   -0.8614    0.1330    0.0000 C   0  0  0  0  0  0  0  0  0  0  0  0
   -2.0989   -3.4394    0.0000 C   0  0  0  0  0  0  0  0  0  0  0  0
   -1.2739   -3.4394    0.0000 C   0  0  0  0  0  0  0  0  0  0  0  0
   -0.8614   -4.1538    0.0000 C   0  0  0  0  0  0  0  0  0  0  0  0
   -1.2739   -4.8683    0.0000 C   0  0  0  0  0  0  0  0  0  0  0  0
   -2.0989   -4.8683    0.0000 C   0  0  0  0  0  0  0  0  0  0  0  0
   -2.5114   -4.1538    0.0000 C   0  0  0  0  0  0  0  0  0  0  0  0
   -3.3364   -1.8999    0.0000 H   0  0  0  0  0  0  0  0  0  0  0  0
   -4.1614   -2.7249    0.0000 H   0  0  0  0  0  0  0  0  0  0  0  0
   -3.3364   -3.5499    0.0000 H   0  0  0  0  0  0  0  0  0  0  0  0
   -2.9239   -2.0104    0.0000 H   0  0  0  0  0  0  0  0  0  0  0  0
   -2.0989   -1.1854    0.0000 H   0  0  0  0  0  0  0  0  0  0  0  0
   -0.4489   -2.0104    0.0000 H   0  0  0  0  0  0  0  0  0  0  0  0
    1.4311   -3.4625    0.0000 H   0  0  0  0  0  0  0  0  0  0  0  0
    3.1381   -1.1130    0.0000 H   0  0  0  0  0  0  0  0  0  0  0  0
    2.1912   -0.6907    0.0000 H   0  0  0  0  0  0  0  0  0  0  0  0
   -0.4489   -0.5815    0.0000 H   0  0  0  0  0  0  0  0  0  0  0  0
   -0.0364    1.5619    0.0000 H   0  0  0  0  0  0  0  0  0  0  0  0
    2.4386    0.1330    0.0000 H   0  0  0  0  0  0  0  0  0  0  0  0
    0.8042   -1.3047    0.0000 H   0  0  0  0  0  0  0  0  0  0  0  0
    0.3761    2.2764    0.0000 H   0  0  0  0  0  0  0  0  0  0  0  0
    1.2011    3.7053    0.0000 H   0  0  0  0  0  0  0  0  0  0  0  0
    2.8511    3.7053    0.0000 H   0  0  0  0  0  0  0  0  0  0  0  0
    3.6761    2.2764    0.0000 H   0  0  0  0  0  0  0  0  0  0  0  0
    2.8511    0.8475    0.0000 H   0  0  0  0  0  0  0  0  0  0  0  0
   -2.8958   -0.7950    0.0000 H   0  0  0  0  0  0  0  0  0  0  0  0
   -3.3364    0.1330    0.0000 H   0  0  0  0  0  0  0  0  0  0  0  0
   -2.5114    1.5619    0.0000 H   0  0  0  0  0  0  0  0  0  0  0  0
   -1.6864    0.1330    0.0000 H   0  0  0  0  0  0  0  0  0  0  0  0
   -1.6864   -2.7249    0.0000 H   0  0  0  0  0  0  0  0  0  0  0  0
   -0.0364   -4.1538    0.0000 H   0  0  0  0  0  0  0  0  0  0  0  0
   -0.8614   -5.5828    0.0000 H   0  0  0  0  0  0  0  0  0  0  0  0
   -2.5114   -5.5828    0.0000 H   0  0  0  0  0  0  0  0  0  0  0  0
   -3.3364   -4.1538    0.0000 H   0  0  0  0  0  0  0  0  0  0  0  0
  2  1  1  0  0  0  0
  2  3  1  0  0  0  0
  3  4  1  0  0  0  0
  4  5  2  0  0  0  0
  4  6  1  0  0  0  0
  6  7  1  0  0  0  0
  7  8  1  0  0  0  0
  8  9  2  0  0  0  0
  8 10  1  0  0  0  0
 10 11  4  0  0  0  0
 11 12  4  0  0  0  0
 12 13  4  0  0  0  0
 13 14  4  0  0  0  0
  7 15  1  0  0  0  0
 15 16  4  0  0  0  0
 16 17  4  0  0  0  0
 17 18  4  0  0  0  0
 18 19  4  0  0  0  0
 19 20  4  0  0  0  0
 18 21  1  0  0  0  0
 21 22  4  0  0  0  0
 22 23  4  0  0  0  0
 23 24  4  0  0  0  0
 24 25  4  0  0  0  0
 25 26  4  0  0  0  0
  6 27  1  0  0  0  0
 27 28  4  0  0  0  0
 28 29  4  0  0  0  0
 29 30  4  0  0  0  0
 30 31  4  0  0  0  0
 31 32  4  0  0  0  0
  2 33  1  0  0  0  0
 33 34  4  0  0  0  0
 34 35  4  0  0  0  0
 35 36  4  0  0  0  0
 36 37  4  0  0  0  0
 37 38  4  0  0  0  0
 14 10  4  0  0  0  0
 20 15  4  0  0  0  0
 26 21  4  0  0  0  0
 32 27  4  0  0  0  0
 38 33  4  0  0  0  0
  1 39  1  0  0  0  0
  1 40  1  0  0  0  0
  1 41  1  0  0  0  0
  2 42  1  0  0  0  0
  3 43  1  0  0  0  0
  6 44  1  0  0  0  0
 11 45  1  0  0  0  0
 13 46  1  0  0  0  0
 14 47  1  0  0  0  0
 16 48  1  0  0  0  0
 17 49  1  0  0  0  0
 19 50  1  0  0  0  0
 20 51  1  0  0  0  0
 22 52  1  0  0  0  0
 23 53  1  0  0  0  0
 24 54  1  0  0  0  0
 25 55  1  0  0  0  0
 26 56  1  0  0  0  0
 28 57  1  0  0  0  0
 29 58  1  0  0  0  0
 30 59  1  0  0  0  0
 32 60  1  0  0  0  0
 34 61  1  0  0  0  0
 35 62  1  0  0  0  0
 36 63  1  0  0  0  0
 37 64  1  0  0  0  0
 38 65  1  0  0  0  0
M  END
> <Compound>
24a

>  <SMILE>
C[C@H](NC(=O)C(N(C(=O)C1=CNC=N1)C1=CC=C(C=C1)C1=CC=CC=C1)C1=CC=CN=C1)C1=CC=CC=C1

> <Relation>
=

>  <IC50 (??M)>
0.96

> <Bond Type>
Non-covalent

> <References>
10.1101/2020.12.19.423537

> <Year>
2020

> <StandardizerResult>
Remove Explicit Hydrogens (ID: RemoveExplicitH)
Dearomatize (ID: Dearomatize)
Clear Stereo (ID: ClearStereo)
Wedge Clean (ID: WedgeClean)
Mesomerize (ID: Mesomerize)
Tautomerize (ID: Tautomerize)
Aromatize (ID: Aromatize)
Add Explicit Hydrogens (ID: AddExplicitH)
Neutralize (ID: Neutralize)
Clean 2D (ID: Clean2D)

> <Molecule (InChiKey)>
RZTKCADKVFEBSP-UHFFFAOYSA-N

> <Outcome>
Active

> <IC50 (uM)>
0.96

> <SMILES>
C[C@H](NC(=O)C(N(C(=O)C1=CNC=N1)C1=CC=C(C=C1)C1=CC=CC=C1)C1=CC=CN=C1)C1=CC=CC=C1

$$$$

  Mrv2016 04192109512D          

 70 74  0  0  0  0            999 V2000
   -3.5605   -2.6791    0.0000 C   0  0  0  0  0  0  0  0  0  0  0  0
   -2.7355   -2.6791    0.0000 C   0  0  0  0  0  0  0  0  0  0  0  0
   -2.3230   -1.9646    0.0000 N   0  0  0  0  0  0  0  0  0  0  0  0
   -1.4980   -1.9646    0.0000 C   0  0  0  0  0  0  0  0  0  0  0  0
   -1.0855   -2.6791    0.0000 O   0  0  0  0  0  0  0  0  0  0  0  0
   -1.0855   -1.2501    0.0000 C   0  0  0  0  0  0  0  0  0  0  0  0
   -0.2605   -1.2501    0.0000 N   0  0  0  0  0  0  0  0  0  0  0  0
    0.1520   -1.9646    0.0000 C   0  0  0  0  0  0  0  0  0  0  0  0
   -0.2605   -2.6791    0.0000 O   0  0  0  0  0  0  0  0  0  0  0  0
    0.9770   -1.9646    0.0000 C   0  0  0  0  0  0  0  0  0  0  0  0
    1.4619   -2.6320    0.0000 C   0  0  0  0  0  0  0  0  0  0  0  0
    2.2466   -2.3771    0.0000 C   0  0  0  0  0  0  0  0  0  0  0  0
    2.2466   -1.5521    0.0000 C   0  0  0  0  0  0  0  0  0  0  0  0
    1.4619   -1.2972    0.0000 O   0  0  0  0  0  0  0  0  0  0  0  0
    0.1520   -0.5357    0.0000 C   0  0  0  0  0  0  0  0  0  0  0  0
   -0.2605    0.1788    0.0000 C   0  0  0  0  0  0  0  0  0  0  0  0
    0.1520    0.8933    0.0000 C   0  0  0  0  0  0  0  0  0  0  0  0
    0.9770    0.8933    0.0000 C   0  0  0  0  0  0  0  0  0  0  0  0
    1.3895    0.1788    0.0000 C   0  0  0  0  0  0  0  0  0  0  0  0
    0.9770   -0.5357    0.0000 C   0  0  0  0  0  0  0  0  0  0  0  0
    1.3895    1.6078    0.0000 N   0  0  0  0  0  0  0  0  0  0  0  0
    0.9770    2.3222    0.0000 C   0  0  0  0  0  0  0  0  0  0  0  0
    1.3895    3.0367    0.0000 C   0  0  0  0  0  0  0  0  0  0  0  0
    2.2145    3.0367    0.0000 C   0  0  0  0  0  0  0  0  0  0  0  0
    2.6270    2.3222    0.0000 C   0  0  0  0  0  0  0  0  0  0  0  0
    2.2145    1.6078    0.0000 C   0  0  0  0  0  0  0  0  0  0  0  0
   -1.4980   -0.5357    0.0000 C   0  0  0  0  0  0  0  0  0  0  0  0
   -2.3230   -0.5357    0.0000 C   0  0  0  0  0  0  0  0  0  0  0  0
   -2.7355    0.1788    0.0000 C   0  0  0  0  0  0  0  0  0  0  0  0
   -2.3230    0.8933    0.0000 C   0  0  0  0  0  0  0  0  0  0  0  0
   -1.4980    0.8933    0.0000 N   0  0  0  0  0  0  0  0  0  0  0  0
   -1.0855    0.1788    0.0000 C   0  0  0  0  0  0  0  0  0  0  0  0
   -2.3230   -3.3935    0.0000 C   0  0  0  0  0  0  0  0  0  0  0  0
   -1.4980   -3.3935    0.0000 C   0  0  0  0  0  0  0  0  0  0  0  0
   -1.0855   -4.1080    0.0000 C   0  0  0  0  0  0  0  0  0  0  0  0
   -1.4980   -4.8225    0.0000 C   0  0  0  0  0  0  0  0  0  0  0  0
   -2.3230   -4.8225    0.0000 C   0  0  0  0  0  0  0  0  0  0  0  0
   -2.7355   -4.1080    0.0000 C   0  0  0  0  0  0  0  0  0  0  0  0
   -3.5605   -1.8541    0.0000 H   0  0  0  0  0  0  0  0  0  0  0  0
   -4.3855   -2.6791    0.0000 H   0  0  0  0  0  0  0  0  0  0  0  0
   -3.5605   -3.5041    0.0000 H   0  0  0  0  0  0  0  0  0  0  0  0
   -3.1480   -1.9646    0.0000 H   0  0  0  0  0  0  0  0  0  0  0  0
   -2.3230   -1.1396    0.0000 H   0  0  0  0  0  0  0  0  0  0  0  0
   -0.6730   -1.9646    0.0000 H   0  0  0  0  0  0  0  0  0  0  0  0
    1.2070   -3.4167    0.0000 H   0  0  0  0  0  0  0  0  0  0  0  0
    2.9140   -2.8620    0.0000 H   0  0  0  0  0  0  0  0  0  0  0  0
    2.9140   -1.0672    0.0000 H   0  0  0  0  0  0  0  0  0  0  0  0
   -0.6730   -0.5357    0.0000 H   0  0  0  0  0  0  0  0  0  0  0  0
   -0.2605    1.6078    0.0000 H   0  0  0  0  0  0  0  0  0  0  0  0
    2.2145    0.1788    0.0000 H   0  0  0  0  0  0  0  0  0  0  0  0
    0.5801   -1.2589    0.0000 H   0  0  0  0  0  0  0  0  0  0  0  0
    0.2398    2.6925    0.0000 H   0  0  0  0  0  0  0  0  0  0  0  0
    0.2398    1.9520    0.0000 H   0  0  0  0  0  0  0  0  0  0  0  0
    1.3416    3.8603    0.0000 H   0  0  0  0  0  0  0  0  0  0  0  0
    0.7002    3.4900    0.0000 H   0  0  0  0  0  0  0  0  0  0  0  0
    2.9038    3.4900    0.0000 H   0  0  0  0  0  0  0  0  0  0  0  0
    2.2625    3.8603    0.0000 H   0  0  0  0  0  0  0  0  0  0  0  0
    3.3643    1.9520    0.0000 H   0  0  0  0  0  0  0  0  0  0  0  0
    3.3643    2.6925    0.0000 H   0  0  0  0  0  0  0  0  0  0  0  0
    2.2625    0.7842    0.0000 H   0  0  0  0  0  0  0  0  0  0  0  0
    2.9038    1.1544    0.0000 H   0  0  0  0  0  0  0  0  0  0  0  0
   -3.1199   -0.7492    0.0000 H   0  0  0  0  0  0  0  0  0  0  0  0
   -3.5605    0.1788    0.0000 H   0  0  0  0  0  0  0  0  0  0  0  0
   -2.7355    1.6078    0.0000 H   0  0  0  0  0  0  0  0  0  0  0  0
   -1.9105    0.1788    0.0000 H   0  0  0  0  0  0  0  0  0  0  0  0
   -1.9105   -2.6791    0.0000 H   0  0  0  0  0  0  0  0  0  0  0  0
   -0.2605   -4.1080    0.0000 H   0  0  0  0  0  0  0  0  0  0  0  0
   -1.0855   -5.5370    0.0000 H   0  0  0  0  0  0  0  0  0  0  0  0
   -2.7355   -5.5370    0.0000 H   0  0  0  0  0  0  0  0  0  0  0  0
   -3.5605   -4.1080    0.0000 H   0  0  0  0  0  0  0  0  0  0  0  0
  2  1  1  0  0  0  0
  2  3  1  0  0  0  0
  3  4  1  0  0  0  0
  4  5  2  0  0  0  0
  4  6  1  0  0  0  0
  6  7  1  0  0  0  0
  7  8  1  0  0  0  0
  8  9  2  0  0  0  0
  8 10  1  0  0  0  0
 10 11  4  0  0  0  0
 11 12  4  0  0  0  0
 12 13  4  0  0  0  0
 13 14  4  0  0  0  0
  7 15  1  0  0  0  0
 15 16  4  0  0  0  0
 16 17  4  0  0  0  0
 17 18  4  0  0  0  0
 18 19  4  0  0  0  0
 19 20  4  0  0  0  0
 18 21  1  0  0  0  0
 21 22  1  0  0  0  0
 22 23  1  0  0  0  0
 23 24  1  0  0  0  0
 24 25  1  0  0  0  0
 25 26  1  0  0  0  0
  6 27  1  0  0  0  0
 27 28  4  0  0  0  0
 28 29  4  0  0  0  0
 29 30  4  0  0  0  0
 30 31  4  0  0  0  0
 31 32  4  0  0  0  0
  2 33  1  0  0  0  0
 33 34  4  0  0  0  0
 34 35  4  0  0  0  0
 35 36  4  0  0  0  0
 36 37  4  0  0  0  0
 37 38  4  0  0  0  0
 14 10  4  0  0  0  0
 20 15  4  0  0  0  0
 26 21  1  0  0  0  0
 32 27  4  0  0  0  0
 38 33  4  0  0  0  0
  1 39  1  0  0  0  0
  1 40  1  0  0  0  0
  1 41  1  0  0  0  0
  2 42  1  0  0  0  0
  3 43  1  0  0  0  0
  6 44  1  0  0  0  0
 11 45  1  0  0  0  0
 12 46  1  0  0  0  0
 13 47  1  0  0  0  0
 16 48  1  0  0  0  0
 17 49  1  0  0  0  0
 19 50  1  0  0  0  0
 20 51  1  0  0  0  0
 22 52  1  0  0  0  0
 22 53  1  0  0  0  0
 23 54  1  0  0  0  0
 23 55  1  0  0  0  0
 24 56  1  0  0  0  0
 24 57  1  0  0  0  0
 25 58  1  0  0  0  0
 25 59  1  0  0  0  0
 26 60  1  0  0  0  0
 26 61  1  0  0  0  0
 28 62  1  0  0  0  0
 29 63  1  0  0  0  0
 30 64  1  0  0  0  0
 32 65  1  0  0  0  0
 34 66  1  0  0  0  0
 35 67  1  0  0  0  0
 36 68  1  0  0  0  0
 37 69  1  0  0  0  0
 38 70  1  0  0  0  0
M  END
> <Compound>
16a

>  <SMILE>
C[C@H](NC(=O)C(N(C(=O)C1=CC=CO1)C1=CC=C(C=C1)N1CCCCC1)C1=CC=CN=C1)C1=CC=CC=C1

> <Relation>
=

>  <IC50 (??M)>
5.46

> <Bond Type>
Non-covalent

> <References>
10.1101/2020.12.19.423537

> <Year>
2020

> <StandardizerResult>
Remove Explicit Hydrogens (ID: RemoveExplicitH)
Dearomatize (ID: Dearomatize)
Clear Stereo (ID: ClearStereo)
Wedge Clean (ID: WedgeClean)
Mesomerize (ID: Mesomerize)
Tautomerize (ID: Tautomerize)
Aromatize (ID: Aromatize)
Add Explicit Hydrogens (ID: AddExplicitH)
Neutralize (ID: Neutralize)
Clean 2D (ID: Clean2D)

> <Molecule (InChiKey)>
UEDFBTZVUPSJIJ-UHFFFAOYSA-N

> <Outcome>
Active

> <IC50 (uM)>
5.46

> <SMILES>
C[C@H](NC(=O)C(N(C(=O)C1=CC=CO1)C1=CC=C(C=C1)N1CCCCC1)C1=CC=CN=C1)C1=CC=CC=C1

$$$$

  Mrv2016 04192109512D          

 65 69  0  0  0  0            999 V2000
    3.3368   -1.0413    0.0000 O   0  0  0  0  0  0  0  0  0  0  0  0
    2.6223   -0.6288    0.0000 C   0  0  0  0  0  0  0  0  0  0  0  0
    2.6223    0.1962    0.0000 N   0  0  0  0  0  0  0  0  0  0  0  0
    3.3368    0.6087    0.0000 C   0  0  0  0  0  0  0  0  0  0  0  0
    3.3368    1.4337    0.0000 C   0  0  0  0  0  0  0  0  0  0  0  0
    4.0512    1.8462    0.0000 C   0  0  0  0  0  0  0  0  0  0  0  0
    4.7657    1.4337    0.0000 C   0  0  0  0  0  0  0  0  0  0  0  0
    4.7657    0.6087    0.0000 C   0  0  0  0  0  0  0  0  0  0  0  0
    4.0512    0.1962    0.0000 C   0  0  0  0  0  0  0  0  0  0  0  0
    1.9078   -1.0413    0.0000 C   0  0  0  0  0  0  0  0  0  0  0  0
    1.9078   -1.8663    0.0000 N   0  0  0  0  0  0  0  0  0  0  0  0
    2.6223   -2.2788    0.0000 C   0  0  0  0  0  0  0  0  0  0  0  0
    3.3368   -1.8663    0.0000 O   0  0  0  0  0  0  0  0  0  0  0  0
    2.6223   -3.1038    0.0000 C   0  0  0  0  0  0  0  0  0  0  0  0
    3.2897   -3.5888    0.0000 C   0  0  0  0  0  0  0  0  0  0  0  0
    3.0348   -4.3734    0.0000 N   0  0  0  0  0  0  0  0  0  0  0  0
    2.2098   -4.3734    0.0000 C   0  0  0  0  0  0  0  0  0  0  0  0
    1.9549   -3.5888    0.0000 N   0  0  0  0  0  0  0  0  0  0  0  0
    1.1934   -2.2788    0.0000 C   0  0  0  0  0  0  0  0  0  0  0  0
    1.1934   -3.1038    0.0000 C   0  0  0  0  0  0  0  0  0  0  0  0
    0.4789   -3.5163    0.0000 C   0  0  0  0  0  0  0  0  0  0  0  0
   -0.2356   -3.1038    0.0000 C   0  0  0  0  0  0  0  0  0  0  0  0
   -0.2356   -2.2788    0.0000 C   0  0  0  0  0  0  0  0  0  0  0  0
    0.4789   -1.8663    0.0000 C   0  0  0  0  0  0  0  0  0  0  0  0
   -0.9500   -3.5163    0.0000 C   0  0  0  0  0  0  0  0  0  0  0  0
   -0.9500   -4.3413    0.0000 C   0  0  0  0  0  0  0  0  0  0  0  0
   -1.6645   -4.7538    0.0000 C   0  0  0  0  0  0  0  0  0  0  0  0
   -2.3790   -4.3413    0.0000 C   0  0  0  0  0  0  0  0  0  0  0  0
   -2.3790   -3.5163    0.0000 C   0  0  0  0  0  0  0  0  0  0  0  0
   -1.6645   -3.1038    0.0000 C   0  0  0  0  0  0  0  0  0  0  0  0
    1.1934   -0.6288    0.0000 C   0  0  0  0  0  0  0  0  0  0  0  0
    0.4789   -1.0413    0.0000 C   0  0  0  0  0  0  0  0  0  0  0  0
   -0.2356   -0.6288    0.0000 C   0  0  0  0  0  0  0  0  0  0  0  0
   -0.2356    0.1962    0.0000 C   0  0  0  0  0  0  0  0  0  0  0  0
    0.4789    0.6087    0.0000 N   0  0  0  0  0  0  0  0  0  0  0  0
    1.1934    0.1962    0.0000 C   0  0  0  0  0  0  0  0  0  0  0  0
    1.9078    0.6087    0.0000 H   0  0  0  0  0  0  0  0  0  0  0  0
    3.3368   -0.2163    0.0000 H   0  0  0  0  0  0  0  0  0  0  0  0
    2.8834    2.1229    0.0000 H   0  0  0  0  0  0  0  0  0  0  0  0
    2.5132    1.4816    0.0000 H   0  0  0  0  0  0  0  0  0  0  0  0
    4.4215    2.5834    0.0000 H   0  0  0  0  0  0  0  0  0  0  0  0
    3.6810    2.5834    0.0000 H   0  0  0  0  0  0  0  0  0  0  0  0
    5.5893    1.4816    0.0000 H   0  0  0  0  0  0  0  0  0  0  0  0
    5.2191    2.1229    0.0000 H   0  0  0  0  0  0  0  0  0  0  0  0
    5.2191   -0.0806    0.0000 H   0  0  0  0  0  0  0  0  0  0  0  0
    5.5893    0.5607    0.0000 H   0  0  0  0  0  0  0  0  0  0  0  0
    4.1945   -0.6163    0.0000 H   0  0  0  0  0  0  0  0  0  0  0  0
    4.6832   -0.3341    0.0000 H   0  0  0  0  0  0  0  0  0  0  0  0
    2.6223   -1.4538    0.0000 H   0  0  0  0  0  0  0  0  0  0  0  0
    4.0744   -3.3338    0.0000 H   0  0  0  0  0  0  0  0  0  0  0  0
    1.7249   -5.0408    0.0000 H   0  0  0  0  0  0  0  0  0  0  0  0
    1.3026   -4.0939    0.0000 H   0  0  0  0  0  0  0  0  0  0  0  0
    1.9166   -2.7069    0.0000 H   0  0  0  0  0  0  0  0  0  0  0  0
    0.4789   -4.3413    0.0000 H   0  0  0  0  0  0  0  0  0  0  0  0
   -0.9500   -1.8663    0.0000 H   0  0  0  0  0  0  0  0  0  0  0  0
    1.1934   -1.4538    0.0000 H   0  0  0  0  0  0  0  0  0  0  0  0
   -0.2356   -4.7538    0.0000 H   0  0  0  0  0  0  0  0  0  0  0  0
   -1.6645   -5.5788    0.0000 H   0  0  0  0  0  0  0  0  0  0  0  0
   -3.0935   -4.7538    0.0000 H   0  0  0  0  0  0  0  0  0  0  0  0
   -3.0935   -3.1038    0.0000 H   0  0  0  0  0  0  0  0  0  0  0  0
   -1.6645   -2.2788    0.0000 H   0  0  0  0  0  0  0  0  0  0  0  0
   -0.2356   -1.4538    0.0000 H   0  0  0  0  0  0  0  0  0  0  0  0
   -1.0606   -0.6288    0.0000 H   0  0  0  0  0  0  0  0  0  0  0  0
   -0.9500    0.6087    0.0000 H   0  0  0  0  0  0  0  0  0  0  0  0
    1.9078   -0.2163    0.0000 H   0  0  0  0  0  0  0  0  0  0  0  0
  1  2  2  0  0  0  0
  2  3  1  0  0  0  0
  3  4  1  0  0  0  0
  4  5  1  0  0  0  0
  5  6  1  0  0  0  0
  6  7  1  0  0  0  0
  7  8  1  0  0  0  0
  8  9  1  0  0  0  0
  2 10  1  0  0  0  0
 10 11  1  0  0  0  0
 11 12  1  0  0  0  0
 12 13  2  0  0  0  0
 12 14  1  0  0  0  0
 14 15  4  0  0  0  0
 15 16  4  0  0  0  0
 16 17  4  0  0  0  0
 17 18  4  0  0  0  0
 11 19  1  0  0  0  0
 19 20  4  0  0  0  0
 20 21  4  0  0  0  0
 21 22  4  0  0  0  0
 22 23  4  0  0  0  0
 23 24  4  0  0  0  0
 22 25  1  0  0  0  0
 25 26  4  0  0  0  0
 26 27  4  0  0  0  0
 27 28  4  0  0  0  0
 28 29  4  0  0  0  0
 29 30  4  0  0  0  0
 10 31  1  0  0  0  0
 31 32  4  0  0  0  0
 32 33  4  0  0  0  0
 33 34  4  0  0  0  0
 34 35  4  0  0  0  0
 35 36  4  0  0  0  0
  9  4  1  0  0  0  0
 18 14  4  0  0  0  0
 24 19  4  0  0  0  0
 30 25  4  0  0  0  0
 36 31  4  0  0  0  0
  3 37  1  0  0  0  0
  4 38  1  0  0  0  0
  5 39  1  0  0  0  0
  5 40  1  0  0  0  0
  6 41  1  0  0  0  0
  6 42  1  0  0  0  0
  7 43  1  0  0  0  0
  7 44  1  0  0  0  0
  8 45  1  0  0  0  0
  8 46  1  0  0  0  0
  9 47  1  0  0  0  0
  9 48  1  0  0  0  0
 10 49  1  0  0  0  0
 15 50  1  0  0  0  0
 17 51  1  0  0  0  0
 18 52  1  0  0  0  0
 20 53  1  0  0  0  0
 21 54  1  0  0  0  0
 23 55  1  0  0  0  0
 24 56  1  0  0  0  0
 26 57  1  0  0  0  0
 27 58  1  0  0  0  0
 28 59  1  0  0  0  0
 29 60  1  0  0  0  0
 30 61  1  0  0  0  0
 32 62  1  0  0  0  0
 33 63  1  0  0  0  0
 34 64  1  0  0  0  0
 36 65  1  0  0  0  0
M  END
> <Compound>
35a

>  <SMILE>
O=C(NC1CCCCC1)C(N(C(=O)C1=CNC=N1)C1=CC=C(C=C1)C1=CC=CC=C1)C1=CC=CN=C1

> <Relation>
=

>  <IC50 (??M)>
5.82

> <Bond Type>
Non-covalent

> <References>
10.1101/2020.12.19.423537

> <Year>
2020

> <StandardizerResult>
Remove Explicit Hydrogens (ID: RemoveExplicitH)
Dearomatize (ID: Dearomatize)
Clear Stereo (ID: ClearStereo)
Wedge Clean (ID: WedgeClean)
Mesomerize (ID: Mesomerize)
Tautomerize (ID: Tautomerize)
Aromatize (ID: Aromatize)
Add Explicit Hydrogens (ID: AddExplicitH)
Neutralize (ID: Neutralize)
Clean 2D (ID: Clean2D)

> <Molecule (InChiKey)>
UKLYROLISOJUEM-UHFFFAOYSA-N

> <Outcome>
Active

> <IC50 (uM)>
5.82

> <SMILES>
O=C(NC1CCCCC1)C(N(C(=O)C1=CNC=N1)C1=CC=C(C=C1)C1=CC=CC=C1)C1=CC=CN=C1

$$$$

  Mrv2016 04192109512D          

 45 48  0  0  0  0            999 V2000
    1.6469    4.8484    0.0000 C   0  0  0  0  0  0  0  0  0  0  0  0
    0.9324    4.4359    0.0000 O   0  0  0  0  0  0  0  0  0  0  0  0
    0.9324    3.6109    0.0000 C   0  0  0  0  0  0  0  0  0  0  0  0
    1.6469    3.1984    0.0000 C   0  0  0  0  0  0  0  0  0  0  0  0
    1.6469    2.3734    0.0000 C   0  0  0  0  0  0  0  0  0  0  0  0
    2.3614    1.9609    0.0000 Cl  0  0  0  0  0  0  0  0  0  0  0  0
    0.9324    1.9609    0.0000 C   0  0  0  0  0  0  0  0  0  0  0  0
    0.2180    2.3734    0.0000 C   0  0  0  0  0  0  0  0  0  0  0  0
    0.2180    3.1984    0.0000 C   0  0  0  0  0  0  0  0  0  0  0  0
   -0.4965    1.9609    0.0000 C   0  0  0  0  0  0  0  0  0  0  0  0
   -0.4965    1.1359    0.0000 C   0  0  0  0  0  0  0  0  0  0  0  0
   -1.2110    0.7234    0.0000 C   0  0  0  0  0  0  0  0  0  0  0  0
   -1.9254    1.1359    0.0000 C   0  0  0  0  0  0  0  0  0  0  0  0
   -1.9254    1.9609    0.0000 N   0  0  0  0  0  0  0  0  0  0  0  0
   -2.6399    2.3734    0.0000 C   0  0  0  0  0  0  0  0  0  0  0  0
   -3.3544    1.9609    0.0000 C   0  0  0  0  0  0  0  0  0  0  0  0
   -4.0689    2.3734    0.0000 N   0  0  0  0  0  0  0  0  0  0  0  0
   -4.0689    3.1984    0.0000 C   0  0  0  0  0  0  0  0  0  0  0  0
   -3.3544    3.6109    0.0000 C   0  0  0  0  0  0  0  0  0  0  0  0
   -2.6399    3.1984    0.0000 C   0  0  0  0  0  0  0  0  0  0  0  0
   -1.2110    2.3734    0.0000 C   0  0  0  0  0  0  0  0  0  0  0  0
   -1.2110    3.1984    0.0000 O   0  0  0  0  0  0  0  0  0  0  0  0
   -1.2110   -0.1016    0.0000 C   0  0  0  0  0  0  0  0  0  0  0  0
   -0.4965   -0.5141    0.0000 C   0  0  0  0  0  0  0  0  0  0  0  0
   -0.4965   -1.3391    0.0000 N   0  0  0  0  0  0  0  0  0  0  0  0
   -1.2110   -1.7516    0.0000 C   0  0  0  0  0  0  0  0  0  0  0  0
   -1.2110   -2.5766    0.0000 O   0  0  0  0  0  0  0  0  0  0  0  0
   -1.9254   -1.3391    0.0000 N   0  0  0  0  0  0  0  0  0  0  0  0
   -1.9254   -0.5141    0.0000 C   0  0  0  0  0  0  0  0  0  0  0  0
   -2.6399   -0.1016    0.0000 O   0  0  0  0  0  0  0  0  0  0  0  0
    2.0594    4.1339    0.0000 H   0  0  0  0  0  0  0  0  0  0  0  0
    2.3614    5.2609    0.0000 H   0  0  0  0  0  0  0  0  0  0  0  0
    1.2344    5.5629    0.0000 H   0  0  0  0  0  0  0  0  0  0  0  0
    2.3614    3.6109    0.0000 H   0  0  0  0  0  0  0  0  0  0  0  0
    0.9324    1.1359    0.0000 H   0  0  0  0  0  0  0  0  0  0  0  0
   -0.4965    3.6109    0.0000 H   0  0  0  0  0  0  0  0  0  0  0  0
    0.2180    0.7234    0.0000 H   0  0  0  0  0  0  0  0  0  0  0  0
   -2.6399    0.7234    0.0000 H   0  0  0  0  0  0  0  0  0  0  0  0
   -3.3544    1.1359    0.0000 H   0  0  0  0  0  0  0  0  0  0  0  0
   -4.7833    3.6109    0.0000 H   0  0  0  0  0  0  0  0  0  0  0  0
   -3.3544    4.4359    0.0000 H   0  0  0  0  0  0  0  0  0  0  0  0
   -1.9254    3.6109    0.0000 H   0  0  0  0  0  0  0  0  0  0  0  0
    0.2180   -0.1016    0.0000 H   0  0  0  0  0  0  0  0  0  0  0  0
    0.2180   -1.7516    0.0000 H   0  0  0  0  0  0  0  0  0  0  0  0
   -2.6399   -1.7516    0.0000 H   0  0  0  0  0  0  0  0  0  0  0  0
  1  2  1  0  0  0  0
  2  3  1  0  0  0  0
  3  4  4  0  0  0  0
  4  5  4  0  0  0  0
  5  6  1  0  0  0  0
  5  7  4  0  0  0  0
  7  8  4  0  0  0  0
  8  9  4  0  0  0  0
  8 10  1  0  0  0  0
 10 11  2  0  0  0  0
 11 12  1  0  0  0  0
 12 13  2  0  0  0  0
 13 14  1  0  0  0  0
 14 15  1  0  0  0  0
 15 16  4  0  0  0  0
 16 17  4  0  0  0  0
 17 18  4  0  0  0  0
 18 19  4  0  0  0  0
 19 20  4  0  0  0  0
 14 21  1  0  0  0  0
 21 22  2  0  0  0  0
 12 23  1  0  0  0  0
 23 24  2  0  0  0  0
 24 25  1  0  0  0  0
 25 26  1  0  0  0  0
 26 27  2  0  0  0  0
 26 28  1  0  0  0  0
 28 29  1  0  0  0  0
 29 30  2  0  0  0  0
  9  3  4  0  0  0  0
 21 10  1  0  0  0  0
 29 23  1  0  0  0  0
 20 15  4  0  0  0  0
  1 31  1  0  0  0  0
  1 32  1  0  0  0  0
  1 33  1  0  0  0  0
  4 34  1  0  0  0  0
  7 35  1  0  0  0  0
  9 36  1  0  0  0  0
 11 37  1  0  0  0  0
 13 38  1  0  0  0  0
 16 39  1  0  0  0  0
 18 40  1  0  0  0  0
 19 41  1  0  0  0  0
 20 42  1  0  0  0  0
 24 43  1  0  0  0  0
 25 44  1  0  0  0  0
 28 45  1  0  0  0  0
M  END
> <Compound>
10

>  <SMILE>
COC1=CC(Cl)=CC(=C1)C1=CC(=CN(C2=CN=CC=C2)C1=O)C1=CNC(=O)NC1=O

> <Relation>
=

>  <IC50 (??M)>
1.2

> <Bond Type>
Non-covalent

> <References>
https://doi.org/10.1021/acscentsci.1c00039

> <Year>
2020

> <StandardizerResult>
Remove Explicit Hydrogens (ID: RemoveExplicitH)
Dearomatize (ID: Dearomatize)
Clear Stereo (ID: ClearStereo)
Wedge Clean (ID: WedgeClean)
Mesomerize (ID: Mesomerize)
Tautomerize (ID: Tautomerize)
Aromatize (ID: Aromatize)
Add Explicit Hydrogens (ID: AddExplicitH)
Neutralize (ID: Neutralize)
Clean 2D (ID: Clean2D)

> <Molecule (InChiKey)>
UMETVGKNHTXVQR-UHFFFAOYSA-N

> <Outcome>
Active

> <IC50 (uM)>
1.2

> <SMILES>
COC1=CC(Cl)=CC(=C1)C1=CC(=CN(C2=CN=CC=C2)C1=O)C1=CNC(=O)NC1=O

$$$$

  Mrv2016 04192109512D          

 61 64  0  0  0  0            999 V2000
    1.0879   -2.6907    0.0000 C   0  0  0  0  0  0  0  0  0  0  0  0
    0.6754   -1.9762    0.0000 C   0  0  0  0  0  0  0  0  0  0  0  0
    1.3899   -1.5637    0.0000 C   0  0  0  0  0  0  0  0  0  0  0  0
   -0.0390   -2.3887    0.0000 C   0  0  0  0  0  0  0  0  0  0  0  0
    0.2629   -1.2618    0.0000 C   0  0  0  0  0  0  0  0  0  0  0  0
   -0.5621   -1.2618    0.0000 C   0  0  0  0  0  0  0  0  0  0  0  0
   -0.9746   -0.5473    0.0000 C   0  0  0  0  0  0  0  0  0  0  0  0
   -0.5621    0.1672    0.0000 C   0  0  0  0  0  0  0  0  0  0  0  0
    0.2629    0.1672    0.0000 C   0  0  0  0  0  0  0  0  0  0  0  0
    0.6754   -0.5473    0.0000 C   0  0  0  0  0  0  0  0  0  0  0  0
   -0.9746    0.8817    0.0000 N   0  0  0  0  0  0  0  0  0  0  0  0
   -1.7996    0.8817    0.0000 C   0  0  0  0  0  0  0  0  0  0  0  0
   -2.2121    1.5961    0.0000 C   0  0  0  0  0  0  0  0  0  0  0  0
   -1.7996    2.3106    0.0000 O   0  0  0  0  0  0  0  0  0  0  0  0
   -3.0371    1.5961    0.0000 N   0  0  0  0  0  0  0  0  0  0  0  0
   -3.4496    2.3106    0.0000 C   0  0  0  0  0  0  0  0  0  0  0  0
   -4.2746    2.3106    0.0000 C   0  0  0  0  0  0  0  0  0  0  0  0
   -4.6871    3.0251    0.0000 C   0  0  0  0  0  0  0  0  0  0  0  0
   -4.2746    3.7395    0.0000 C   0  0  0  0  0  0  0  0  0  0  0  0
   -4.6871    4.4540    0.0000 F   0  0  0  0  0  0  0  0  0  0  0  0
   -3.4496    3.7395    0.0000 C   0  0  0  0  0  0  0  0  0  0  0  0
   -3.0371    3.0251    0.0000 C   0  0  0  0  0  0  0  0  0  0  0  0
   -2.2121    0.1672    0.0000 C   0  0  0  0  0  0  0  0  0  0  0  0
   -1.7996   -0.5473    0.0000 C   0  0  0  0  0  0  0  0  0  0  0  0
   -2.2121   -1.2618    0.0000 N   0  0  0  0  0  0  0  0  0  0  0  0
   -3.0371   -1.2618    0.0000 C   0  0  0  0  0  0  0  0  0  0  0  0
   -3.4496   -0.5473    0.0000 C   0  0  0  0  0  0  0  0  0  0  0  0
   -3.0371    0.1672    0.0000 C   0  0  0  0  0  0  0  0  0  0  0  0
   -0.5621    1.5961    0.0000 C   0  0  0  0  0  0  0  0  0  0  0  0
   -0.9746    2.3106    0.0000 O   0  0  0  0  0  0  0  0  0  0  0  0
    0.2629    1.5961    0.0000 C   0  0  0  0  0  0  0  0  0  0  0  0
    0.7478    2.2636    0.0000 C   0  0  0  0  0  0  0  0  0  0  0  0
    1.5325    2.0086    0.0000 C   0  0  0  0  0  0  0  0  0  0  0  0
    1.5325    1.1836    0.0000 C   0  0  0  0  0  0  0  0  0  0  0  0
    0.7478    0.9287    0.0000 O   0  0  0  0  0  0  0  0  0  0  0  0
    0.3735   -3.1032    0.0000 H   0  0  0  0  0  0  0  0  0  0  0  0
    1.5004   -3.4052    0.0000 H   0  0  0  0  0  0  0  0  0  0  0  0
    1.8024   -2.2782    0.0000 H   0  0  0  0  0  0  0  0  0  0  0  0
    2.2078   -1.4560    0.0000 H   0  0  0  0  0  0  0  0  0  0  0  0
    1.6034   -0.7668    0.0000 H   0  0  0  0  0  0  0  0  0  0  0  0
    0.7354   -1.0615    0.0000 H   0  0  0  0  0  0  0  0  0  0  0  0
   -0.1467   -1.5708    0.0000 H   0  0  0  0  0  0  0  0  0  0  0  0
   -0.8359   -2.1752    0.0000 H   0  0  0  0  0  0  0  0  0  0  0  0
   -0.5413   -3.0432    0.0000 H   0  0  0  0  0  0  0  0  0  0  0  0
   -1.3815   -1.3574    0.0000 H   0  0  0  0  0  0  0  0  0  0  0  0
   -1.3871    0.1672    0.0000 H   0  0  0  0  0  0  0  0  0  0  0  0
    1.0877    0.1493    0.0000 H   0  0  0  0  0  0  0  0  0  0  0  0
   -0.1496   -0.5473    0.0000 H   0  0  0  0  0  0  0  0  0  0  0  0
   -1.3871    1.5961    0.0000 H   0  0  0  0  0  0  0  0  0  0  0  0
   -3.4496    0.8817    0.0000 H   0  0  0  0  0  0  0  0  0  0  0  0
   -4.6871    1.5961    0.0000 H   0  0  0  0  0  0  0  0  0  0  0  0
   -5.5121    3.0251    0.0000 H   0  0  0  0  0  0  0  0  0  0  0  0
   -3.0371    4.4540    0.0000 H   0  0  0  0  0  0  0  0  0  0  0  0
   -2.2121    3.0251    0.0000 H   0  0  0  0  0  0  0  0  0  0  0  0
   -2.6246   -0.5473    0.0000 H   0  0  0  0  0  0  0  0  0  0  0  0
   -3.4496   -1.9762    0.0000 H   0  0  0  0  0  0  0  0  0  0  0  0
   -4.2746   -0.5473    0.0000 H   0  0  0  0  0  0  0  0  0  0  0  0
   -2.6246    0.8817    0.0000 H   0  0  0  0  0  0  0  0  0  0  0  0
    0.4929    3.0482    0.0000 H   0  0  0  0  0  0  0  0  0  0  0  0
    2.1999    2.4935    0.0000 H   0  0  0  0  0  0  0  0  0  0  0  0
    2.1999    0.6987    0.0000 H   0  0  0  0  0  0  0  0  0  0  0  0
  1  2  1  0  0  0  0
  2  3  1  0  0  0  0
  2  4  1  0  0  0  0
  2  5  1  0  0  0  0
  5  6  4  0  0  0  0
  6  7  4  0  0  0  0
  7  8  4  0  0  0  0
  8  9  4  0  0  0  0
  9 10  4  0  0  0  0
  8 11  1  0  0  0  0
 11 12  1  0  0  0  0
 12 13  1  0  0  0  0
 13 14  2  0  0  0  0
 13 15  1  0  0  0  0
 15 16  1  0  0  0  0
 16 17  4  0  0  0  0
 17 18  4  0  0  0  0
 18 19  4  0  0  0  0
 19 20  1  0  0  0  0
 19 21  4  0  0  0  0
 21 22  4  0  0  0  0
 12 23  1  0  0  0  0
 23 24  4  0  0  0  0
 24 25  4  0  0  0  0
 25 26  4  0  0  0  0
 26 27  4  0  0  0  0
 27 28  4  0  0  0  0
 11 29  1  0  0  0  0
 29 30  2  0  0  0  0
 29 31  1  0  0  0  0
 31 32  4  0  0  0  0
 32 33  4  0  0  0  0
 33 34  4  0  0  0  0
 34 35  4  0  0  0  0
 10  5  4  0  0  0  0
 22 16  4  0  0  0  0
 28 23  4  0  0  0  0
 35 31  4  0  0  0  0
  1 36  1  0  0  0  0
  1 37  1  0  0  0  0
  1 38  1  0  0  0  0
  3 39  1  0  0  0  0
  3 40  1  0  0  0  0
  3 41  1  0  0  0  0
  4 42  1  0  0  0  0
  4 43  1  0  0  0  0
  4 44  1  0  0  0  0
  6 45  1  0  0  0  0
  7 46  1  0  0  0  0
  9 47  1  0  0  0  0
 10 48  1  0  0  0  0
 12 49  1  0  0  0  0
 15 50  1  0  0  0  0
 17 51  1  0  0  0  0
 18 52  1  0  0  0  0
 21 53  1  0  0  0  0
 22 54  1  0  0  0  0
 24 55  1  0  0  0  0
 26 56  1  0  0  0  0
 27 57  1  0  0  0  0
 28 58  1  0  0  0  0
 32 59  1  0  0  0  0
 33 60  1  0  0  0  0
 34 61  1  0  0  0  0
M  END
> <Compound>
7a

>  <SMILE>
CC(C)(C)C1=CC=C(C=C1)N(C(C(=O)NC1=CC=C(F)C=C1)C1=CN=CC=C1)C(=O)C1=CC=CO1

> <Relation>
=

>  <IC50 (??M)>
7.81

> <Bond Type>
Non-covalent

> <References>
10.1101/2020.12.19.423537

> <Year>
2020

> <StandardizerResult>
Remove Explicit Hydrogens (ID: RemoveExplicitH)
Dearomatize (ID: Dearomatize)
Clear Stereo (ID: ClearStereo)
Wedge Clean (ID: WedgeClean)
Mesomerize (ID: Mesomerize)
Tautomerize (ID: Tautomerize)
Aromatize (ID: Aromatize)
Add Explicit Hydrogens (ID: AddExplicitH)
Neutralize (ID: Neutralize)
Clean 2D (ID: Clean2D)

> <Molecule (InChiKey)>
USOVOWGAZPCBIJ-UHFFFAOYSA-N

> <Outcome>
Active

> <IC50 (uM)>
7.81

> <SMILES>
CC(C)(C)C1=CC=C(C=C1)N(C(C(=O)NC1=CC=C(F)C=C1)C1=CN=CC=C1)C(=O)C1=CC=CO1

$$$$

  Mrv2016 04192109512D          

 64 67  0  0  0  0            999 V2000
    1.0634   -2.7791    0.0000 C   0  0  0  0  0  0  0  0  0  0  0  0
    0.6509   -2.0646    0.0000 C   0  0  0  0  0  0  0  0  0  0  0  0
    1.3654   -1.6521    0.0000 C   0  0  0  0  0  0  0  0  0  0  0  0
   -0.0636   -2.4771    0.0000 C   0  0  0  0  0  0  0  0  0  0  0  0
    0.2384   -1.3501    0.0000 C   0  0  0  0  0  0  0  0  0  0  0  0
   -0.5866   -1.3501    0.0000 C   0  0  0  0  0  0  0  0  0  0  0  0
   -0.9991   -0.6357    0.0000 C   0  0  0  0  0  0  0  0  0  0  0  0
   -0.5866    0.0788    0.0000 C   0  0  0  0  0  0  0  0  0  0  0  0
    0.2384    0.0788    0.0000 C   0  0  0  0  0  0  0  0  0  0  0  0
    0.6509   -0.6357    0.0000 C   0  0  0  0  0  0  0  0  0  0  0  0
   -0.9991    0.7933    0.0000 N   0  0  0  0  0  0  0  0  0  0  0  0
   -1.8241    0.7933    0.0000 C   0  0  0  0  0  0  0  0  0  0  0  0
   -2.2366    1.5077    0.0000 C   0  0  0  0  0  0  0  0  0  0  0  0
   -1.8241    2.2222    0.0000 O   0  0  0  0  0  0  0  0  0  0  0  0
   -3.0616    1.5077    0.0000 N   0  0  0  0  0  0  0  0  0  0  0  0
   -3.4741    2.2222    0.0000 C   0  0  0  0  0  0  0  0  0  0  0  0
   -4.2946    2.3085    0.0000 C   0  0  0  0  0  0  0  0  0  0  0  0
   -4.4661    3.1154    0.0000 C   0  0  0  0  0  0  0  0  0  0  0  0
   -3.7517    3.5279    0.0000 C   0  0  0  0  0  0  0  0  0  0  0  0
   -3.1386    2.9759    0.0000 C   0  0  0  0  0  0  0  0  0  0  0  0
   -2.2366    0.0788    0.0000 C   0  0  0  0  0  0  0  0  0  0  0  0
   -1.8241   -0.6357    0.0000 C   0  0  0  0  0  0  0  0  0  0  0  0
   -2.2366   -1.3501    0.0000 N   0  0  0  0  0  0  0  0  0  0  0  0
   -3.0616   -1.3501    0.0000 C   0  0  0  0  0  0  0  0  0  0  0  0
   -3.4741   -0.6357    0.0000 C   0  0  0  0  0  0  0  0  0  0  0  0
   -3.0616    0.0788    0.0000 C   0  0  0  0  0  0  0  0  0  0  0  0
   -0.5866    1.5077    0.0000 C   0  0  0  0  0  0  0  0  0  0  0  0
   -0.9991    2.2222    0.0000 O   0  0  0  0  0  0  0  0  0  0  0  0
    0.2384    1.5077    0.0000 C   0  0  0  0  0  0  0  0  0  0  0  0
    0.7233    2.1752    0.0000 C   0  0  0  0  0  0  0  0  0  0  0  0
    1.5079    1.9202    0.0000 C   0  0  0  0  0  0  0  0  0  0  0  0
    1.5079    1.0952    0.0000 C   0  0  0  0  0  0  0  0  0  0  0  0
    0.7233    0.8403    0.0000 O   0  0  0  0  0  0  0  0  0  0  0  0
    0.3489   -3.1916    0.0000 H   0  0  0  0  0  0  0  0  0  0  0  0
    1.4759   -3.4936    0.0000 H   0  0  0  0  0  0  0  0  0  0  0  0
    1.7779   -2.3666    0.0000 H   0  0  0  0  0  0  0  0  0  0  0  0
    2.1833   -1.5444    0.0000 H   0  0  0  0  0  0  0  0  0  0  0  0
    1.5789   -0.8552    0.0000 H   0  0  0  0  0  0  0  0  0  0  0  0
    0.7108   -1.1499    0.0000 H   0  0  0  0  0  0  0  0  0  0  0  0
   -0.1713   -1.6592    0.0000 H   0  0  0  0  0  0  0  0  0  0  0  0
   -0.8605   -2.2636    0.0000 H   0  0  0  0  0  0  0  0  0  0  0  0
   -0.5658   -3.1316    0.0000 H   0  0  0  0  0  0  0  0  0  0  0  0
   -1.4061   -1.4458    0.0000 H   0  0  0  0  0  0  0  0  0  0  0  0
   -1.4116    0.0788    0.0000 H   0  0  0  0  0  0  0  0  0  0  0  0
    1.0632    0.0609    0.0000 H   0  0  0  0  0  0  0  0  0  0  0  0
   -0.1741   -0.6357    0.0000 H   0  0  0  0  0  0  0  0  0  0  0  0
   -1.4116    1.5077    0.0000 H   0  0  0  0  0  0  0  0  0  0  0  0
   -3.4741    0.7933    0.0000 H   0  0  0  0  0  0  0  0  0  0  0  0
   -2.6503    2.2654    0.0000 H   0  0  0  0  0  0  0  0  0  0  0  0
   -5.0698    2.0263    0.0000 H   0  0  0  0  0  0  0  0  0  0  0  0
   -4.4942    1.5080    0.0000 H   0  0  0  0  0  0  0  0  0  0  0  0
   -4.9740    3.7655    0.0000 H   0  0  0  0  0  0  0  0  0  0  0  0
   -5.2891    3.0579    0.0000 H   0  0  0  0  0  0  0  0  0  0  0  0
   -3.2903    4.2119    0.0000 H   0  0  0  0  0  0  0  0  0  0  0  0
   -4.0607    4.2928    0.0000 H   0  0  0  0  0  0  0  0  0  0  0  0
   -2.3621    3.2547    0.0000 H   0  0  0  0  0  0  0  0  0  0  0  0
   -2.7608    3.7093    0.0000 H   0  0  0  0  0  0  0  0  0  0  0  0
   -2.6491   -0.6357    0.0000 H   0  0  0  0  0  0  0  0  0  0  0  0
   -3.4741   -2.0646    0.0000 H   0  0  0  0  0  0  0  0  0  0  0  0
   -4.2991   -0.6357    0.0000 H   0  0  0  0  0  0  0  0  0  0  0  0
   -2.6491    0.7933    0.0000 H   0  0  0  0  0  0  0  0  0  0  0  0
    0.4684    2.9598    0.0000 H   0  0  0  0  0  0  0  0  0  0  0  0
    2.1754    2.4052    0.0000 H   0  0  0  0  0  0  0  0  0  0  0  0
    2.1754    0.6103    0.0000 H   0  0  0  0  0  0  0  0  0  0  0  0
  1  2  1  0  0  0  0
  2  3  1  0  0  0  0
  2  4  1  0  0  0  0
  2  5  1  0  0  0  0
  5  6  4  0  0  0  0
  6  7  4  0  0  0  0
  7  8  4  0  0  0  0
  8  9  4  0  0  0  0
  9 10  4  0  0  0  0
  8 11  1  0  0  0  0
 11 12  1  0  0  0  0
 12 13  1  0  0  0  0
 13 14  2  0  0  0  0
 13 15  1  0  0  0  0
 15 16  1  0  0  0  0
 16 17  1  0  0  0  0
 17 18  1  0  0  0  0
 18 19  1  0  0  0  0
 19 20  1  0  0  0  0
 12 21  1  0  0  0  0
 21 22  4  0  0  0  0
 22 23  4  0  0  0  0
 23 24  4  0  0  0  0
 24 25  4  0  0  0  0
 25 26  4  0  0  0  0
 11 27  1  0  0  0  0
 27 28  2  0  0  0  0
 27 29  1  0  0  0  0
 29 30  4  0  0  0  0
 30 31  4  0  0  0  0
 31 32  4  0  0  0  0
 32 33  4  0  0  0  0
 10  5  4  0  0  0  0
 20 16  1  0  0  0  0
 26 21  4  0  0  0  0
 33 29  4  0  0  0  0
  1 34  1  0  0  0  0
  1 35  1  0  0  0  0
  1 36  1  0  0  0  0
  3 37  1  0  0  0  0
  3 38  1  0  0  0  0
  3 39  1  0  0  0  0
  4 40  1  0  0  0  0
  4 41  1  0  0  0  0
  4 42  1  0  0  0  0
  6 43  1  0  0  0  0
  7 44  1  0  0  0  0
  9 45  1  0  0  0  0
 10 46  1  0  0  0  0
 12 47  1  0  0  0  0
 15 48  1  0  0  0  0
 16 49  1  0  0  0  0
 17 50  1  0  0  0  0
 17 51  1  0  0  0  0
 18 52  1  0  0  0  0
 18 53  1  0  0  0  0
 19 54  1  0  0  0  0
 19 55  1  0  0  0  0
 20 56  1  0  0  0  0
 20 57  1  0  0  0  0
 22 58  1  0  0  0  0
 24 59  1  0  0  0  0
 25 60  1  0  0  0  0
 26 61  1  0  0  0  0
 30 62  1  0  0  0  0
 31 63  1  0  0  0  0
 32 64  1  0  0  0  0
M  END
> <Compound>
5a

>  <SMILE>
CC(C)(C)C1=CC=C(C=C1)N(C(C(=O)NC1CCCC1)C1=CN=CC=C1)C(=O)C1=CC=CO1

> <Relation>
=

>  <IC50 (??M)>
2.51

> <Bond Type>
Non-covalent

> <References>
10.1101/2020.12.19.423537

> <Year>
2020

> <StandardizerResult>
Remove Explicit Hydrogens (ID: RemoveExplicitH)
Dearomatize (ID: Dearomatize)
Clear Stereo (ID: ClearStereo)
Wedge Clean (ID: WedgeClean)
Mesomerize (ID: Mesomerize)
Tautomerize (ID: Tautomerize)
Aromatize (ID: Aromatize)
Add Explicit Hydrogens (ID: AddExplicitH)
Neutralize (ID: Neutralize)
Clean 2D (ID: Clean2D)

> <Molecule (InChiKey)>
VNOUKGOBWQZPOV-UHFFFAOYSA-N

> <Outcome>
Active

> <IC50 (uM)>
2.51

> <SMILES>
CC(C)(C)C1=CC=C(C=C1)N(C(C(=O)NC1CCCC1)C1=CN=CC=C1)C(=O)C1=CC=CO1

$$$$

  Mrv2016 04192109512D          

 63 67  0  0  0  0            999 V2000
   -3.1876   -2.6744    0.0000 C   0  0  0  0  0  0  0  0  0  0  0  0
   -2.3626   -2.6744    0.0000 C   0  0  0  0  0  0  0  0  0  0  0  0
   -1.9501   -1.9600    0.0000 N   0  0  0  0  0  0  0  0  0  0  0  0
   -1.1251   -1.9600    0.0000 C   0  0  0  0  0  0  0  0  0  0  0  0
   -0.7126   -2.6744    0.0000 O   0  0  0  0  0  0  0  0  0  0  0  0
   -0.7126   -1.2455    0.0000 C   0  0  0  0  0  0  0  0  0  0  0  0
    0.1124   -1.2455    0.0000 N   0  0  0  0  0  0  0  0  0  0  0  0
    0.5249   -1.9600    0.0000 C   0  0  0  0  0  0  0  0  0  0  0  0
    0.1124   -2.6744    0.0000 O   0  0  0  0  0  0  0  0  0  0  0  0
    1.3499   -1.9600    0.0000 C   0  0  0  0  0  0  0  0  0  0  0  0
    1.8348   -2.6274    0.0000 C   0  0  0  0  0  0  0  0  0  0  0  0
    2.6195   -2.3725    0.0000 C   0  0  0  0  0  0  0  0  0  0  0  0
    2.6195   -1.5475    0.0000 C   0  0  0  0  0  0  0  0  0  0  0  0
    1.8348   -1.2925    0.0000 O   0  0  0  0  0  0  0  0  0  0  0  0
    0.5249   -0.5310    0.0000 C   0  0  0  0  0  0  0  0  0  0  0  0
    0.1124    0.1835    0.0000 C   0  0  0  0  0  0  0  0  0  0  0  0
    0.5249    0.8979    0.0000 C   0  0  0  0  0  0  0  0  0  0  0  0
    1.3499    0.8979    0.0000 C   0  0  0  0  0  0  0  0  0  0  0  0
    1.7624    0.1835    0.0000 C   0  0  0  0  0  0  0  0  0  0  0  0
    1.3499   -0.5310    0.0000 C   0  0  0  0  0  0  0  0  0  0  0  0
    1.7624    1.6124    0.0000 N   0  0  0  0  0  0  0  0  0  0  0  0
    1.4269    2.3661    0.0000 C   0  0  0  0  0  0  0  0  0  0  0  0
    2.0399    2.9181    0.0000 C   0  0  0  0  0  0  0  0  0  0  0  0
    2.7544    2.5056    0.0000 C   0  0  0  0  0  0  0  0  0  0  0  0
    2.5829    1.6986    0.0000 C   0  0  0  0  0  0  0  0  0  0  0  0
   -1.1251   -0.5310    0.0000 C   0  0  0  0  0  0  0  0  0  0  0  0
   -1.9501   -0.5310    0.0000 C   0  0  0  0  0  0  0  0  0  0  0  0
   -2.3626    0.1835    0.0000 C   0  0  0  0  0  0  0  0  0  0  0  0
   -1.9501    0.8979    0.0000 C   0  0  0  0  0  0  0  0  0  0  0  0
   -1.1251    0.8979    0.0000 N   0  0  0  0  0  0  0  0  0  0  0  0
   -0.7126    0.1835    0.0000 C   0  0  0  0  0  0  0  0  0  0  0  0
   -1.9501   -3.3889    0.0000 C   0  0  0  0  0  0  0  0  0  0  0  0
   -1.1251   -3.3889    0.0000 C   0  0  0  0  0  0  0  0  0  0  0  0
   -0.7126   -4.1034    0.0000 C   0  0  0  0  0  0  0  0  0  0  0  0
   -1.1251   -4.8178    0.0000 C   0  0  0  0  0  0  0  0  0  0  0  0
   -1.9501   -4.8178    0.0000 C   0  0  0  0  0  0  0  0  0  0  0  0
   -2.3626   -4.1034    0.0000 C   0  0  0  0  0  0  0  0  0  0  0  0
   -3.1876   -1.8494    0.0000 H   0  0  0  0  0  0  0  0  0  0  0  0
   -4.0126   -2.6744    0.0000 H   0  0  0  0  0  0  0  0  0  0  0  0
   -3.1876   -3.4994    0.0000 H   0  0  0  0  0  0  0  0  0  0  0  0
   -2.7751   -1.9600    0.0000 H   0  0  0  0  0  0  0  0  0  0  0  0
   -1.9501   -1.1350    0.0000 H   0  0  0  0  0  0  0  0  0  0  0  0
   -0.3001   -1.9600    0.0000 H   0  0  0  0  0  0  0  0  0  0  0  0
    1.5799   -3.4120    0.0000 H   0  0  0  0  0  0  0  0  0  0  0  0
    3.2869   -2.8574    0.0000 H   0  0  0  0  0  0  0  0  0  0  0  0
    3.2869   -1.0625    0.0000 H   0  0  0  0  0  0  0  0  0  0  0  0
   -0.3001   -0.5310    0.0000 H   0  0  0  0  0  0  0  0  0  0  0  0
    0.1124    1.6124    0.0000 H   0  0  0  0  0  0  0  0  0  0  0  0
    2.5874    0.1835    0.0000 H   0  0  0  0  0  0  0  0  0  0  0  0
    0.9530   -1.2543    0.0000 H   0  0  0  0  0  0  0  0  0  0  0  0
    0.6199    2.5376    0.0000 H   0  0  0  0  0  0  0  0  0  0  0  0
    1.9537    3.7386    0.0000 H   0  0  0  0  0  0  0  0  0  0  0  0
    3.5081    2.8412    0.0000 H   0  0  0  0  0  0  0  0  0  0  0  0
    3.1349    1.0855    0.0000 H   0  0  0  0  0  0  0  0  0  0  0  0
   -2.7470   -0.7445    0.0000 H   0  0  0  0  0  0  0  0  0  0  0  0
   -3.1876    0.1835    0.0000 H   0  0  0  0  0  0  0  0  0  0  0  0
   -2.3626    1.6124    0.0000 H   0  0  0  0  0  0  0  0  0  0  0  0
   -1.5376    0.1835    0.0000 H   0  0  0  0  0  0  0  0  0  0  0  0
   -1.5376   -2.6744    0.0000 H   0  0  0  0  0  0  0  0  0  0  0  0
    0.1124   -4.1034    0.0000 H   0  0  0  0  0  0  0  0  0  0  0  0
   -0.7126   -5.5323    0.0000 H   0  0  0  0  0  0  0  0  0  0  0  0
   -2.3626   -5.5323    0.0000 H   0  0  0  0  0  0  0  0  0  0  0  0
   -3.1876   -4.1034    0.0000 H   0  0  0  0  0  0  0  0  0  0  0  0
  2  1  1  0  0  0  0
  2  3  1  0  0  0  0
  3  4  1  0  0  0  0
  4  5  2  0  0  0  0
  4  6  1  0  0  0  0
  6  7  1  0  0  0  0
  7  8  1  0  0  0  0
  8  9  2  0  0  0  0
  8 10  1  0  0  0  0
 10 11  4  0  0  0  0
 11 12  4  0  0  0  0
 12 13  4  0  0  0  0
 13 14  4  0  0  0  0
  7 15  1  0  0  0  0
 15 16  4  0  0  0  0
 16 17  4  0  0  0  0
 17 18  4  0  0  0  0
 18 19  4  0  0  0  0
 19 20  4  0  0  0  0
 18 21  1  0  0  0  0
 21 22  4  0  0  0  0
 22 23  4  0  0  0  0
 23 24  4  0  0  0  0
 24 25  4  0  0  0  0
  6 26  1  0  0  0  0
 26 27  4  0  0  0  0
 27 28  4  0  0  0  0
 28 29  4  0  0  0  0
 29 30  4  0  0  0  0
 30 31  4  0  0  0  0
  2 32  1  0  0  0  0
 32 33  4  0  0  0  0
 33 34  4  0  0  0  0
 34 35  4  0  0  0  0
 35 36  4  0  0  0  0
 36 37  4  0  0  0  0
 14 10  4  0  0  0  0
 20 15  4  0  0  0  0
 25 21  4  0  0  0  0
 31 26  4  0  0  0  0
 37 32  4  0  0  0  0
  1 38  1  0  0  0  0
  1 39  1  0  0  0  0
  1 40  1  0  0  0  0
  2 41  1  0  0  0  0
  3 42  1  0  0  0  0
  6 43  1  0  0  0  0
 11 44  1  0  0  0  0
 12 45  1  0  0  0  0
 13 46  1  0  0  0  0
 16 47  1  0  0  0  0
 17 48  1  0  0  0  0
 19 49  1  0  0  0  0
 20 50  1  0  0  0  0
 22 51  1  0  0  0  0
 23 52  1  0  0  0  0
 24 53  1  0  0  0  0
 25 54  1  0  0  0  0
 27 55  1  0  0  0  0
 28 56  1  0  0  0  0
 29 57  1  0  0  0  0
 31 58  1  0  0  0  0
 33 59  1  0  0  0  0
 34 60  1  0  0  0  0
 35 61  1  0  0  0  0
 36 62  1  0  0  0  0
 37 63  1  0  0  0  0
M  END
> <Compound>
20a

>  <SMILE>
C[C@H](NC(=O)C(N(C(=O)C1=CC=CO1)C1=CC=C(C=C1)N1C=CC=C1)C1=CC=CN=C1)C1=CC=CC=C1

> <Relation>
=

>  <IC50 (??M)>
0.94

> <Bond Type>
Non-covalent

> <References>
10.1101/2020.12.19.423537

> <Year>
2020

> <StandardizerResult>
Remove Explicit Hydrogens (ID: RemoveExplicitH)
Dearomatize (ID: Dearomatize)
Clear Stereo (ID: ClearStereo)
Wedge Clean (ID: WedgeClean)
Mesomerize (ID: Mesomerize)
Tautomerize (ID: Tautomerize)
Aromatize (ID: Aromatize)
Add Explicit Hydrogens (ID: AddExplicitH)
Neutralize (ID: Neutralize)
Clean 2D (ID: Clean2D)

> <Molecule (InChiKey)>
WVXFUFQTNVWHME-UHFFFAOYSA-N

> <Outcome>
Active

> <IC50 (uM)>
0.94

> <SMILES>
C[C@H](NC(=O)C(N(C(=O)C1=CC=CO1)C1=CC=C(C=C1)N1C=CC=C1)C1=CC=CN=C1)C1=CC=CC=C1

$$$$

  Mrv2016 04192109512D          

 63 67  0  0  0  0            999 V2000
    1.4133    1.3915    0.0000 C   0  0  0  0  0  0  0  0  0  0  0  0
    1.6682    0.6068    0.0000 C   0  0  0  0  0  0  0  0  0  0  0  0
    0.8836    0.3519    0.0000 C   0  0  0  0  0  0  0  0  0  0  0  0
    2.4529    0.8618    0.0000 C   0  0  0  0  0  0  0  0  0  0  0  0
    1.9232   -0.1778    0.0000 C   0  0  0  0  0  0  0  0  0  0  0  0
    2.7301   -0.3493    0.0000 C   0  0  0  0  0  0  0  0  0  0  0  0
    2.9851   -1.1339    0.0000 C   0  0  0  0  0  0  0  0  0  0  0  0
    2.4331   -1.7470    0.0000 C   0  0  0  0  0  0  0  0  0  0  0  0
    1.6261   -1.5755    0.0000 C   0  0  0  0  0  0  0  0  0  0  0  0
    1.3711   -0.7909    0.0000 C   0  0  0  0  0  0  0  0  0  0  0  0
    2.6880   -2.5316    0.0000 N   0  0  0  0  0  0  0  0  0  0  0  0
    3.4950   -2.7032    0.0000 C   0  0  0  0  0  0  0  0  0  0  0  0
    3.7499   -3.4878    0.0000 C   0  0  0  0  0  0  0  0  0  0  0  0
    3.1979   -4.1009    0.0000 O   0  0  0  0  0  0  0  0  0  0  0  0
    4.5569   -3.6593    0.0000 N   0  0  0  0  0  0  0  0  0  0  0  0
    4.8118   -4.4439    0.0000 N   0  0  0  0  0  0  0  0  0  0  0  0
    4.3269   -5.1114    0.0000 N   0  0  0  0  0  0  0  0  0  0  0  0
    4.8118   -5.7788    0.0000 N   0  0  0  0  0  0  0  0  0  0  0  0
    5.5964   -5.5239    0.0000 C   0  0  0  0  0  0  0  0  0  0  0  0
    5.5964   -4.6989    0.0000 C   0  0  0  0  0  0  0  0  0  0  0  0
    6.3109   -4.2864    0.0000 C   0  0  0  0  0  0  0  0  0  0  0  0
    7.0254   -4.6989    0.0000 C   0  0  0  0  0  0  0  0  0  0  0  0
    7.0254   -5.5239    0.0000 C   0  0  0  0  0  0  0  0  0  0  0  0
    6.3109   -5.9364    0.0000 C   0  0  0  0  0  0  0  0  0  0  0  0
    4.0470   -2.0901    0.0000 C   0  0  0  0  0  0  0  0  0  0  0  0
    3.7921   -1.3055    0.0000 C   0  0  0  0  0  0  0  0  0  0  0  0
    4.3441   -0.6924    0.0000 C   0  0  0  0  0  0  0  0  0  0  0  0
    5.1511   -0.8639    0.0000 C   0  0  0  0  0  0  0  0  0  0  0  0
    5.4060   -1.6485    0.0000 N   0  0  0  0  0  0  0  0  0  0  0  0
    4.8540   -2.2616    0.0000 C   0  0  0  0  0  0  0  0  0  0  0  0
    2.1360   -3.1447    0.0000 C   0  0  0  0  0  0  0  0  0  0  0  0
    2.3909   -3.9294    0.0000 O   0  0  0  0  0  0  0  0  0  0  0  0
    1.3290   -2.9732    0.0000 C   0  0  0  0  0  0  0  0  0  0  0  0
    0.7159   -3.5252    0.0000 C   0  0  0  0  0  0  0  0  0  0  0  0
    0.0014   -3.1127    0.0000 C   0  0  0  0  0  0  0  0  0  0  0  0
    0.1729   -2.3058    0.0000 C   0  0  0  0  0  0  0  0  0  0  0  0
    0.9934   -2.2195    0.0000 O   0  0  0  0  0  0  0  0  0  0  0  0
    2.1979    1.6464    0.0000 H   0  0  0  0  0  0  0  0  0  0  0  0
    1.1584    2.1761    0.0000 H   0  0  0  0  0  0  0  0  0  0  0  0
    0.6287    1.1365    0.0000 H   0  0  0  0  0  0  0  0  0  0  0  0
    0.0612    0.4166    0.0000 H   0  0  0  0  0  0  0  0  0  0  0  0
    0.5091   -0.3832    0.0000 H   0  0  0  0  0  0  0  0  0  0  0  0
    1.4194   -0.2754    0.0000 H   0  0  0  0  0  0  0  0  0  0  0  0
    2.3881    0.0393    0.0000 H   0  0  0  0  0  0  0  0  0  0  0  0
    3.1879    0.4872    0.0000 H   0  0  0  0  0  0  0  0  0  0  0  0
    3.0802    1.3976    0.0000 H   0  0  0  0  0  0  0  0  0  0  0  0
    3.5516   -0.4261    0.0000 H   0  0  0  0  0  0  0  0  0  0  0  0
    3.2400   -1.9185    0.0000 H   0  0  0  0  0  0  0  0  0  0  0  0
    0.8230   -1.3865    0.0000 H   0  0  0  0  0  0  0  0  0  0  0  0
    2.1781   -0.9624    0.0000 H   0  0  0  0  0  0  0  0  0  0  0  0
    2.9429   -3.3163    0.0000 H   0  0  0  0  0  0  0  0  0  0  0  0
    5.1089   -3.0462    0.0000 H   0  0  0  0  0  0  0  0  0  0  0  0
    6.3109   -3.4614    0.0000 H   0  0  0  0  0  0  0  0  0  0  0  0
    7.7398   -4.2864    0.0000 H   0  0  0  0  0  0  0  0  0  0  0  0
    7.7398   -5.9364    0.0000 H   0  0  0  0  0  0  0  0  0  0  0  0
    6.3109   -6.7614    0.0000 H   0  0  0  0  0  0  0  0  0  0  0  0
    4.5990   -1.4770    0.0000 H   0  0  0  0  0  0  0  0  0  0  0  0
    4.5616    0.1035    0.0000 H   0  0  0  0  0  0  0  0  0  0  0  0
    5.7031   -0.2508    0.0000 H   0  0  0  0  0  0  0  0  0  0  0  0
    4.3019   -2.8747    0.0000 H   0  0  0  0  0  0  0  0  0  0  0  0
    0.8021   -4.3457    0.0000 H   0  0  0  0  0  0  0  0  0  0  0  0
   -0.7523   -3.4483    0.0000 H   0  0  0  0  0  0  0  0  0  0  0  0
   -0.3791   -1.6927    0.0000 H   0  0  0  0  0  0  0  0  0  0  0  0
  1  2  1  0  0  0  0
  2  3  1  0  0  0  0
  2  4  1  0  0  0  0
  2  5  1  0  0  0  0
  5  6  4  0  0  0  0
  6  7  4  0  0  0  0
  7  8  4  0  0  0  0
  8  9  4  0  0  0  0
  9 10  4  0  0  0  0
  8 11  1  0  0  0  0
 11 12  1  0  0  0  0
 12 13  1  0  0  0  0
 13 14  2  0  0  0  0
 13 15  1  0  0  0  0
 15 16  1  0  0  0  0
 16 17  4  0  0  0  0
 17 18  4  0  0  0  0
 18 19  4  0  0  0  0
 19 20  4  0  0  0  0
 20 21  4  0  0  0  0
 21 22  4  0  0  0  0
 22 23  4  0  0  0  0
 23 24  4  0  0  0  0
 12 25  1  0  0  0  0
 25 26  4  0  0  0  0
 26 27  4  0  0  0  0
 27 28  4  0  0  0  0
 28 29  4  0  0  0  0
 29 30  4  0  0  0  0
 11 31  1  0  0  0  0
 31 32  2  0  0  0  0
 31 33  1  0  0  0  0
 33 34  4  0  0  0  0
 34 35  4  0  0  0  0
 35 36  4  0  0  0  0
 36 37  4  0  0  0  0
 10  5  4  0  0  0  0
 20 16  4  0  0  0  0
 30 25  4  0  0  0  0
 37 33  4  0  0  0  0
 24 19  4  0  0  0  0
  1 38  1  0  0  0  0
  1 39  1  0  0  0  0
  1 40  1  0  0  0  0
  3 41  1  0  0  0  0
  3 42  1  0  0  0  0
  3 43  1  0  0  0  0
  4 44  1  0  0  0  0
  4 45  1  0  0  0  0
  4 46  1  0  0  0  0
  6 47  1  0  0  0  0
  7 48  1  0  0  0  0
  9 49  1  0  0  0  0
 10 50  1  0  0  0  0
 12 51  1  0  0  0  0
 15 52  1  0  0  0  0
 21 53  1  0  0  0  0
 22 54  1  0  0  0  0
 23 55  1  0  0  0  0
 24 56  1  0  0  0  0
 26 57  1  0  0  0  0
 27 58  1  0  0  0  0
 28 59  1  0  0  0  0
 30 60  1  0  0  0  0
 34 61  1  0  0  0  0
 35 62  1  0  0  0  0
 36 63  1  0  0  0  0
M  END
> <Compound>
10a

>  <SMILE>
CC(C)(C)C1=CC=C(C=C1)N(C(C(=O)NN1N=NC2=C1C=CC=C2)C1=CC=CN=C1)C(=O)C1=CC=CO1

> <Relation>
=

>  <IC50 (??M)>
8.13

> <Bond Type>
Non-covalent

> <References>
10.1101/2020.12.19.423537

> <Year>
2020

> <StandardizerResult>
Remove Explicit Hydrogens (ID: RemoveExplicitH)
Dearomatize (ID: Dearomatize)
Clear Stereo (ID: ClearStereo)
Wedge Clean (ID: WedgeClean)
Mesomerize (ID: Mesomerize)
Tautomerize (ID: Tautomerize)
Aromatize (ID: Aromatize)
Add Explicit Hydrogens (ID: AddExplicitH)
Neutralize (ID: Neutralize)
Clean 2D (ID: Clean2D)

> <Molecule (InChiKey)>
WVZCZMIWKGLJTR-UHFFFAOYSA-N

> <Outcome>
Active

> <IC50 (uM)>
8.13

> <SMILES>
CC(C)(C)C1=CC=C(C=C1)N(C(C(=O)NN1N=NC2=C1C=CC=C2)C1=CC=CN=C1)C(=O)C1=CC=CO1

$$$$

  Mrv2016 04192109512D          

 57 60  0  0  0  0            999 V2000
    2.6105    5.2808    0.0000 C   0  0  0  0  0  0  0  0  0  0  0  0
    2.6105    4.4558    0.0000 C   0  0  0  0  0  0  0  0  0  0  0  0
    3.3250    4.0433    0.0000 C   0  0  0  0  0  0  0  0  0  0  0  0
    1.8960    4.0433    0.0000 C   0  0  0  0  0  0  0  0  0  0  0  0
    1.8960    3.2183    0.0000 C   0  0  0  0  0  0  0  0  0  0  0  0
    1.1816    2.8058    0.0000 O   0  0  0  0  0  0  0  0  0  0  0  0
    1.1816    1.9808    0.0000 C   0  0  0  0  0  0  0  0  0  0  0  0
    1.8960    1.5683    0.0000 C   0  0  0  0  0  0  0  0  0  0  0  0
    1.8960    0.7433    0.0000 C   0  0  0  0  0  0  0  0  0  0  0  0
    2.6105    0.3308    0.0000 Cl  0  0  0  0  0  0  0  0  0  0  0  0
    1.1816    0.3308    0.0000 C   0  0  0  0  0  0  0  0  0  0  0  0
    0.4671    0.7433    0.0000 C   0  0  0  0  0  0  0  0  0  0  0  0
    0.4671    1.5683    0.0000 C   0  0  0  0  0  0  0  0  0  0  0  0
   -0.2474    0.3308    0.0000 C   0  0  0  0  0  0  0  0  0  0  0  0
   -0.2474   -0.4942    0.0000 C   0  0  0  0  0  0  0  0  0  0  0  0
   -0.9619   -0.9067    0.0000 C   0  0  0  0  0  0  0  0  0  0  0  0
   -1.6763   -0.4942    0.0000 C   0  0  0  0  0  0  0  0  0  0  0  0
   -1.6763    0.3308    0.0000 N   0  0  0  0  0  0  0  0  0  0  0  0
   -0.9619    0.7433    0.0000 C   0  0  0  0  0  0  0  0  0  0  0  0
   -0.9619    1.5683    0.0000 O   0  0  0  0  0  0  0  0  0  0  0  0
   -2.3908    0.7433    0.0000 C   0  0  0  0  0  0  0  0  0  0  0  0
   -3.1053    0.3308    0.0000 C   0  0  0  0  0  0  0  0  0  0  0  0
   -3.8197    0.7433    0.0000 N   0  0  0  0  0  0  0  0  0  0  0  0
   -3.8197    1.5683    0.0000 C   0  0  0  0  0  0  0  0  0  0  0  0
   -3.1053    1.9808    0.0000 C   0  0  0  0  0  0  0  0  0  0  0  0
   -2.3908    1.5683    0.0000 C   0  0  0  0  0  0  0  0  0  0  0  0
   -0.9619   -1.7317    0.0000 C   0  0  0  0  0  0  0  0  0  0  0  0
   -0.2474   -2.1442    0.0000 C   0  0  0  0  0  0  0  0  0  0  0  0
   -0.2474   -2.9692    0.0000 N   0  0  0  0  0  0  0  0  0  0  0  0
   -0.9619   -3.3817    0.0000 C   0  0  0  0  0  0  0  0  0  0  0  0
   -0.9619   -4.2067    0.0000 O   0  0  0  0  0  0  0  0  0  0  0  0
   -1.6763   -2.9692    0.0000 N   0  0  0  0  0  0  0  0  0  0  0  0
   -1.6763   -2.1442    0.0000 C   0  0  0  0  0  0  0  0  0  0  0  0
   -2.3908   -1.7317    0.0000 O   0  0  0  0  0  0  0  0  0  0  0  0
    3.4355    5.2808    0.0000 H   0  0  0  0  0  0  0  0  0  0  0  0
    2.6105    6.1058    0.0000 H   0  0  0  0  0  0  0  0  0  0  0  0
    1.7855    5.2808    0.0000 H   0  0  0  0  0  0  0  0  0  0  0  0
    3.3250    4.8683    0.0000 H   0  0  0  0  0  0  0  0  0  0  0  0
    2.7416    3.4600    0.0000 H   0  0  0  0  0  0  0  0  0  0  0  0
    3.7375    3.3289    0.0000 H   0  0  0  0  0  0  0  0  0  0  0  0
    4.1219    4.2569    0.0000 H   0  0  0  0  0  0  0  0  0  0  0  0
    1.4427    4.7326    0.0000 H   0  0  0  0  0  0  0  0  0  0  0  0
    1.0724    4.0913    0.0000 H   0  0  0  0  0  0  0  0  0  0  0  0
    2.2180    2.4588    0.0000 H   0  0  0  0  0  0  0  0  0  0  0  0
    1.1816    3.6308    0.0000 H   0  0  0  0  0  0  0  0  0  0  0  0
    2.7086    1.4259    0.0000 H   0  0  0  0  0  0  0  0  0  0  0  0
    1.1816   -0.4942    0.0000 H   0  0  0  0  0  0  0  0  0  0  0  0
   -0.2474    1.9808    0.0000 H   0  0  0  0  0  0  0  0  0  0  0  0
    0.4671   -0.9067    0.0000 H   0  0  0  0  0  0  0  0  0  0  0  0
   -2.3908   -0.9067    0.0000 H   0  0  0  0  0  0  0  0  0  0  0  0
   -3.1053   -0.4942    0.0000 H   0  0  0  0  0  0  0  0  0  0  0  0
   -4.5342    1.9808    0.0000 H   0  0  0  0  0  0  0  0  0  0  0  0
   -3.1053    2.8058    0.0000 H   0  0  0  0  0  0  0  0  0  0  0  0
   -1.6763    1.9808    0.0000 H   0  0  0  0  0  0  0  0  0  0  0  0
    0.4671   -1.7317    0.0000 H   0  0  0  0  0  0  0  0  0  0  0  0
    0.4671   -3.3817    0.0000 H   0  0  0  0  0  0  0  0  0  0  0  0
   -2.3908   -3.3817    0.0000 H   0  0  0  0  0  0  0  0  0  0  0  0
  1  2  1  0  0  0  0
  2  3  1  0  0  0  0
  2  4  1  0  0  0  0
  4  5  1  0  0  0  0
  5  6  1  0  0  0  0
  6  7  1  0  0  0  0
  7  8  4  0  0  0  0
  8  9  4  0  0  0  0
  9 10  1  0  0  0  0
  9 11  4  0  0  0  0
 11 12  4  0  0  0  0
 12 13  4  0  0  0  0
 12 14  1  0  0  0  0
 14 15  2  0  0  0  0
 15 16  1  0  0  0  0
 16 17  2  0  0  0  0
 17 18  1  0  0  0  0
 18 19  1  0  0  0  0
 19 20  2  0  0  0  0
 18 21  1  0  0  0  0
 21 22  4  0  0  0  0
 22 23  4  0  0  0  0
 23 24  4  0  0  0  0
 24 25  4  0  0  0  0
 25 26  4  0  0  0  0
 16 27  1  0  0  0  0
 27 28  2  0  0  0  0
 28 29  1  0  0  0  0
 29 30  1  0  0  0  0
 30 31  2  0  0  0  0
 30 32  1  0  0  0  0
 32 33  1  0  0  0  0
 33 34  2  0  0  0  0
 13  7  4  0  0  0  0
 19 14  1  0  0  0  0
 26 21  4  0  0  0  0
 33 27  1  0  0  0  0
  1 35  1  0  0  0  0
  1 36  1  0  0  0  0
  1 37  1  0  0  0  0
  2 38  1  0  0  0  0
  3 39  1  0  0  0  0
  3 40  1  0  0  0  0
  3 41  1  0  0  0  0
  4 42  1  0  0  0  0
  4 43  1  0  0  0  0
  5 44  1  0  0  0  0
  5 45  1  0  0  0  0
  8 46  1  0  0  0  0
 11 47  1  0  0  0  0
 13 48  1  0  0  0  0
 15 49  1  0  0  0  0
 17 50  1  0  0  0  0
 22 51  1  0  0  0  0
 24 52  1  0  0  0  0
 25 53  1  0  0  0  0
 26 54  1  0  0  0  0
 28 55  1  0  0  0  0
 29 56  1  0  0  0  0
 32 57  1  0  0  0  0
M  END
> <Compound>
13

>  <SMILE>
CC(C)CCOC1=CC(Cl)=CC(=C1)C1=CC(=CN(C1=O)C1=CN=CC=C1)C1=CNC(=O)NC1=O

> <Relation>
=

>  <IC50 (??M)>
0.19

> <Bond Type>
Non-covalent

> <References>
https://doi.org/10.1021/acscentsci.1c00039

> <Year>
2020

> <StandardizerResult>
Remove Explicit Hydrogens (ID: RemoveExplicitH)
Dearomatize (ID: Dearomatize)
Clear Stereo (ID: ClearStereo)
Wedge Clean (ID: WedgeClean)
Mesomerize (ID: Mesomerize)
Tautomerize (ID: Tautomerize)
Aromatize (ID: Aromatize)
Add Explicit Hydrogens (ID: AddExplicitH)
Neutralize (ID: Neutralize)
Clean 2D (ID: Clean2D)

> <Molecule (InChiKey)>
XEQQANRELYKWAL-UHFFFAOYSA-N

> <Outcome>
Active

> <IC50 (uM)>
0.19

> <SMILES>
CC(C)CCOC1=CC(Cl)=CC(=C1)C1=CC(=CN(C1=O)C1=CN=CC=C1)C1=CNC(=O)NC1=O

$$$$

  Mrv2016 04192109512D          

 41 44  0  0  0  0            999 V2000
   -3.3561    0.7507    0.0000 Cl  0  0  0  0  0  0  0  0  0  0  0  0
   -3.3561   -0.0743    0.0000 C   0  0  0  0  0  0  0  0  0  0  0  0
   -2.6417   -0.4868    0.0000 C   0  0  0  0  0  0  0  0  0  0  0  0
   -2.6417   -1.3118    0.0000 C   0  0  0  0  0  0  0  0  0  0  0  0
   -3.3561   -1.7243    0.0000 C   0  0  0  0  0  0  0  0  0  0  0  0
   -4.0706   -1.3118    0.0000 C   0  0  0  0  0  0  0  0  0  0  0  0
   -4.0706   -0.4868    0.0000 C   0  0  0  0  0  0  0  0  0  0  0  0
   -1.9272   -1.7243    0.0000 C   0  0  0  0  0  0  0  0  0  0  0  0
   -1.2127   -1.3118    0.0000 C   0  0  0  0  0  0  0  0  0  0  0  0
   -0.4982   -1.7243    0.0000 C   0  0  0  0  0  0  0  0  0  0  0  0
   -0.4982   -2.5493    0.0000 C   0  0  0  0  0  0  0  0  0  0  0  0
   -1.2127   -2.9618    0.0000 N   0  0  0  0  0  0  0  0  0  0  0  0
   -1.2127   -3.7868    0.0000 C   0  0  0  0  0  0  0  0  0  0  0  0
   -0.4982   -4.1993    0.0000 C   0  0  0  0  0  0  0  0  0  0  0  0
   -0.4982   -5.0243    0.0000 N   0  0  0  0  0  0  0  0  0  0  0  0
   -1.2127   -5.4368    0.0000 C   0  0  0  0  0  0  0  0  0  0  0  0
   -1.9272   -5.0243    0.0000 C   0  0  0  0  0  0  0  0  0  0  0  0
   -1.9272   -4.1993    0.0000 C   0  0  0  0  0  0  0  0  0  0  0  0
   -1.9272   -2.5493    0.0000 C   0  0  0  0  0  0  0  0  0  0  0  0
   -2.6417   -2.9618    0.0000 O   0  0  0  0  0  0  0  0  0  0  0  0
    0.2162   -1.3118    0.0000 C   0  0  0  0  0  0  0  0  0  0  0  0
    0.2162   -0.4868    0.0000 C   0  0  0  0  0  0  0  0  0  0  0  0
    0.9307   -0.0743    0.0000 N   0  0  0  0  0  0  0  0  0  0  0  0
    1.6452   -0.4868    0.0000 C   0  0  0  0  0  0  0  0  0  0  0  0
    2.3596   -0.0743    0.0000 O   0  0  0  0  0  0  0  0  0  0  0  0
    1.6452   -1.3118    0.0000 N   0  0  0  0  0  0  0  0  0  0  0  0
    0.9307   -1.7243    0.0000 C   0  0  0  0  0  0  0  0  0  0  0  0
    0.9307   -2.5493    0.0000 O   0  0  0  0  0  0  0  0  0  0  0  0
   -1.9272   -0.0743    0.0000 H   0  0  0  0  0  0  0  0  0  0  0  0
   -3.3561   -2.5493    0.0000 H   0  0  0  0  0  0  0  0  0  0  0  0
   -4.7851   -1.7243    0.0000 H   0  0  0  0  0  0  0  0  0  0  0  0
   -4.7851   -0.0743    0.0000 H   0  0  0  0  0  0  0  0  0  0  0  0
   -1.2127   -0.4868    0.0000 H   0  0  0  0  0  0  0  0  0  0  0  0
    0.2162   -2.9618    0.0000 H   0  0  0  0  0  0  0  0  0  0  0  0
    0.2162   -3.7868    0.0000 H   0  0  0  0  0  0  0  0  0  0  0  0
   -1.2127   -6.2618    0.0000 H   0  0  0  0  0  0  0  0  0  0  0  0
   -2.6417   -5.4368    0.0000 H   0  0  0  0  0  0  0  0  0  0  0  0
   -2.6417   -3.7868    0.0000 H   0  0  0  0  0  0  0  0  0  0  0  0
   -0.4982   -0.0743    0.0000 H   0  0  0  0  0  0  0  0  0  0  0  0
    0.9307    0.7507    0.0000 H   0  0  0  0  0  0  0  0  0  0  0  0
    2.3596   -1.7243    0.0000 H   0  0  0  0  0  0  0  0  0  0  0  0
  1  2  1  0  0  0  0
  2  3  4  0  0  0  0
  3  4  4  0  0  0  0
  4  5  4  0  0  0  0
  5  6  4  0  0  0  0
  6  7  4  0  0  0  0
  4  8  1  0  0  0  0
  8  9  2  0  0  0  0
  9 10  1  0  0  0  0
 10 11  2  0  0  0  0
 11 12  1  0  0  0  0
 12 13  1  0  0  0  0
 13 14  4  0  0  0  0
 14 15  4  0  0  0  0
 15 16  4  0  0  0  0
 16 17  4  0  0  0  0
 17 18  4  0  0  0  0
 12 19  1  0  0  0  0
 19 20  2  0  0  0  0
 10 21  1  0  0  0  0
 21 22  2  0  0  0  0
 22 23  1  0  0  0  0
 23 24  1  0  0  0  0
 24 25  2  0  0  0  0
 24 26  1  0  0  0  0
 26 27  1  0  0  0  0
 27 28  2  0  0  0  0
  7  2  4  0  0  0  0
 19  8  1  0  0  0  0
 27 21  1  0  0  0  0
 18 13  4  0  0  0  0
  3 29  1  0  0  0  0
  5 30  1  0  0  0  0
  6 31  1  0  0  0  0
  7 32  1  0  0  0  0
  9 33  1  0  0  0  0
 11 34  1  0  0  0  0
 14 35  1  0  0  0  0
 16 36  1  0  0  0  0
 17 37  1  0  0  0  0
 18 38  1  0  0  0  0
 22 39  1  0  0  0  0
 23 40  1  0  0  0  0
 26 41  1  0  0  0  0
M  END
> <Compound>
3

>  <SMILE>
ClC1=CC(=CC=C1)C1=CC(=CN(C2=CN=CC=C2)C1=O)C1=CNC(=O)NC1=O

> <Relation>
=

>  <IC50 (??M)>
6.4

> <Bond Type>
Non-covalent

> <References>
https://doi.org/10.1021/acscentsci.1c00039

> <Year>
2020

> <StandardizerResult>
Remove Explicit Hydrogens (ID: RemoveExplicitH)
Dearomatize (ID: Dearomatize)
Clear Stereo (ID: ClearStereo)
Wedge Clean (ID: WedgeClean)
Mesomerize (ID: Mesomerize)
Tautomerize (ID: Tautomerize)
Aromatize (ID: Aromatize)
Add Explicit Hydrogens (ID: AddExplicitH)
Neutralize (ID: Neutralize)
Clean 2D (ID: Clean2D)

> <Molecule (InChiKey)>
XOPZNMANGWUPLN-UHFFFAOYSA-N

> <Outcome>
Active

> <IC50 (uM)>
6.4

> <SMILES>
ClC1=CC(=CC=C1)C1=CC(=CN(C2=CN=CC=C2)C1=O)C1=CNC(=O)NC1=O

$$$$

  Mrv2016 04192109512D          

 54 57  0  0  0  0            999 V2000
    2.5888    5.6199    0.0000 C   0  0  0  0  0  0  0  0  0  0  0  0
    2.5888    4.7949    0.0000 C   0  0  0  0  0  0  0  0  0  0  0  0
    1.8744    4.3824    0.0000 C   0  0  0  0  0  0  0  0  0  0  0  0
    1.8744    3.5574    0.0000 C   0  0  0  0  0  0  0  0  0  0  0  0
    1.1599    3.1449    0.0000 O   0  0  0  0  0  0  0  0  0  0  0  0
    1.1599    2.3199    0.0000 C   0  0  0  0  0  0  0  0  0  0  0  0
    1.8744    1.9074    0.0000 C   0  0  0  0  0  0  0  0  0  0  0  0
    1.8744    1.0824    0.0000 C   0  0  0  0  0  0  0  0  0  0  0  0
    2.5888    0.6699    0.0000 Cl  0  0  0  0  0  0  0  0  0  0  0  0
    1.1599    0.6699    0.0000 C   0  0  0  0  0  0  0  0  0  0  0  0
    0.4454    1.0824    0.0000 C   0  0  0  0  0  0  0  0  0  0  0  0
    0.4454    1.9074    0.0000 C   0  0  0  0  0  0  0  0  0  0  0  0
   -0.2690    0.6699    0.0000 C   0  0  0  0  0  0  0  0  0  0  0  0
   -0.2690   -0.1551    0.0000 C   0  0  0  0  0  0  0  0  0  0  0  0
   -0.9835   -0.5676    0.0000 C   0  0  0  0  0  0  0  0  0  0  0  0
   -1.6980   -0.1551    0.0000 C   0  0  0  0  0  0  0  0  0  0  0  0
   -1.6980    0.6699    0.0000 N   0  0  0  0  0  0  0  0  0  0  0  0
   -0.9835    1.0824    0.0000 C   0  0  0  0  0  0  0  0  0  0  0  0
   -0.9835    1.9074    0.0000 O   0  0  0  0  0  0  0  0  0  0  0  0
   -2.4124    1.0824    0.0000 C   0  0  0  0  0  0  0  0  0  0  0  0
   -3.1269    0.6699    0.0000 C   0  0  0  0  0  0  0  0  0  0  0  0
   -3.8414    1.0824    0.0000 N   0  0  0  0  0  0  0  0  0  0  0  0
   -3.8414    1.9074    0.0000 C   0  0  0  0  0  0  0  0  0  0  0  0
   -3.1269    2.3199    0.0000 C   0  0  0  0  0  0  0  0  0  0  0  0
   -2.4124    1.9074    0.0000 C   0  0  0  0  0  0  0  0  0  0  0  0
   -0.9835   -1.3926    0.0000 C   0  0  0  0  0  0  0  0  0  0  0  0
   -0.2690   -1.8051    0.0000 C   0  0  0  0  0  0  0  0  0  0  0  0
   -0.2690   -2.6301    0.0000 N   0  0  0  0  0  0  0  0  0  0  0  0
   -0.9835   -3.0426    0.0000 C   0  0  0  0  0  0  0  0  0  0  0  0
   -0.9835   -3.8676    0.0000 O   0  0  0  0  0  0  0  0  0  0  0  0
   -1.6980   -2.6301    0.0000 N   0  0  0  0  0  0  0  0  0  0  0  0
   -1.6980   -1.8051    0.0000 C   0  0  0  0  0  0  0  0  0  0  0  0
   -2.4124   -1.3926    0.0000 O   0  0  0  0  0  0  0  0  0  0  0  0
    3.4138    5.6199    0.0000 H   0  0  0  0  0  0  0  0  0  0  0  0
    2.5888    6.4449    0.0000 H   0  0  0  0  0  0  0  0  0  0  0  0
    1.7638    5.6199    0.0000 H   0  0  0  0  0  0  0  0  0  0  0  0
    3.0422    4.1056    0.0000 H   0  0  0  0  0  0  0  0  0  0  0  0
    3.4125    4.7469    0.0000 H   0  0  0  0  0  0  0  0  0  0  0  0
    1.4210    5.0716    0.0000 H   0  0  0  0  0  0  0  0  0  0  0  0
    1.0508    4.4303    0.0000 H   0  0  0  0  0  0  0  0  0  0  0  0
    2.3277    2.8681    0.0000 H   0  0  0  0  0  0  0  0  0  0  0  0
    2.6980    3.5094    0.0000 H   0  0  0  0  0  0  0  0  0  0  0  0
    2.5888    2.3199    0.0000 H   0  0  0  0  0  0  0  0  0  0  0  0
    1.1599   -0.1551    0.0000 H   0  0  0  0  0  0  0  0  0  0  0  0
   -0.2690    2.3199    0.0000 H   0  0  0  0  0  0  0  0  0  0  0  0
    0.4454   -0.5676    0.0000 H   0  0  0  0  0  0  0  0  0  0  0  0
   -2.4124   -0.5676    0.0000 H   0  0  0  0  0  0  0  0  0  0  0  0
   -3.1269   -0.1551    0.0000 H   0  0  0  0  0  0  0  0  0  0  0  0
   -4.5559    2.3199    0.0000 H   0  0  0  0  0  0  0  0  0  0  0  0
   -3.1269    3.1449    0.0000 H   0  0  0  0  0  0  0  0  0  0  0  0
   -1.6980    2.3199    0.0000 H   0  0  0  0  0  0  0  0  0  0  0  0
    0.4454   -1.3926    0.0000 H   0  0  0  0  0  0  0  0  0  0  0  0
    0.4454   -3.0426    0.0000 H   0  0  0  0  0  0  0  0  0  0  0  0
   -2.4124   -3.0426    0.0000 H   0  0  0  0  0  0  0  0  0  0  0  0
  1  2  1  0  0  0  0
  2  3  1  0  0  0  0
  3  4  1  0  0  0  0
  4  5  1  0  0  0  0
  5  6  1  0  0  0  0
  6  7  4  0  0  0  0
  7  8  4  0  0  0  0
  8  9  1  0  0  0  0
  8 10  4  0  0  0  0
 10 11  4  0  0  0  0
 11 12  4  0  0  0  0
 11 13  1  0  0  0  0
 13 14  2  0  0  0  0
 14 15  1  0  0  0  0
 15 16  2  0  0  0  0
 16 17  1  0  0  0  0
 17 18  1  0  0  0  0
 18 19  2  0  0  0  0
 17 20  1  0  0  0  0
 20 21  4  0  0  0  0
 21 22  4  0  0  0  0
 22 23  4  0  0  0  0
 23 24  4  0  0  0  0
 24 25  4  0  0  0  0
 15 26  1  0  0  0  0
 26 27  2  0  0  0  0
 27 28  1  0  0  0  0
 28 29  1  0  0  0  0
 29 30  2  0  0  0  0
 29 31  1  0  0  0  0
 31 32  1  0  0  0  0
 32 33  2  0  0  0  0
 12  6  4  0  0  0  0
 18 13  1  0  0  0  0
 25 20  4  0  0  0  0
 32 26  1  0  0  0  0
  1 34  1  0  0  0  0
  1 35  1  0  0  0  0
  1 36  1  0  0  0  0
  2 37  1  0  0  0  0
  2 38  1  0  0  0  0
  3 39  1  0  0  0  0
  3 40  1  0  0  0  0
  4 41  1  0  0  0  0
  4 42  1  0  0  0  0
  7 43  1  0  0  0  0
 10 44  1  0  0  0  0
 12 45  1  0  0  0  0
 14 46  1  0  0  0  0
 16 47  1  0  0  0  0
 21 48  1  0  0  0  0
 23 49  1  0  0  0  0
 24 50  1  0  0  0  0
 25 51  1  0  0  0  0
 27 52  1  0  0  0  0
 28 53  1  0  0  0  0
 31 54  1  0  0  0  0
M  END
> <Compound>
12

>  <SMILE>
CCCCOC1=CC(Cl)=CC(=C1)C1=CC(=CN(C1=O)C1=CN=CC=C1)C1=CNC(=O)NC1=O

> <Relation>
=

>  <IC50 (??M)>
0.25

> <Bond Type>
Non-covalent

> <References>
https://doi.org/10.1021/acscentsci.1c00039

> <Year>
2020

> <StandardizerResult>
Remove Explicit Hydrogens (ID: RemoveExplicitH)
Dearomatize (ID: Dearomatize)
Clear Stereo (ID: ClearStereo)
Wedge Clean (ID: WedgeClean)
Mesomerize (ID: Mesomerize)
Tautomerize (ID: Tautomerize)
Aromatize (ID: Aromatize)
Add Explicit Hydrogens (ID: AddExplicitH)
Neutralize (ID: Neutralize)
Clean 2D (ID: Clean2D)

> <Molecule (InChiKey)>
ZSDMEQDHYASRTO-UHFFFAOYSA-N

> <Outcome>
Active

> <IC50 (uM)>
0.25

> <SMILES>
CCCCOC1=CC(Cl)=CC(=C1)C1=CC(=CN(C1=O)C1=CN=CC=C1)C1=CNC(=O)NC1=O

$$$$

  Mrv2016 04192109512D          

 60 64  0  0  0  0            999 V2000
    4.9475    2.9193    0.0000 N   0  0  0  0  0  0  0  0  0  0  0  0
    4.2330    2.5068    0.0000 C   0  0  0  0  0  0  0  0  0  0  0  0
    4.2330    1.6818    0.0000 C   0  0  0  0  0  0  0  0  0  0  0  0
    4.9475    1.2693    0.0000 C   0  0  0  0  0  0  0  0  0  0  0  0
    4.9475    0.4443    0.0000 C   0  0  0  0  0  0  0  0  0  0  0  0
    4.2330    0.0318    0.0000 C   0  0  0  0  0  0  0  0  0  0  0  0
    3.5185    0.4443    0.0000 C   0  0  0  0  0  0  0  0  0  0  0  0
    3.5185    1.2693    0.0000 C   0  0  0  0  0  0  0  0  0  0  0  0
    2.8041    1.6818    0.0000 C   0  0  0  0  0  0  0  0  0  0  0  0
    2.0896    1.2693    0.0000 C   0  0  0  0  0  0  0  0  0  0  0  0
    1.3751    1.6818    0.0000 N   0  0  0  0  0  0  0  0  0  0  0  0
    0.6607    1.2693    0.0000 C   0  0  0  0  0  0  0  0  0  0  0  0
    0.6607    0.4443    0.0000 C   0  0  0  0  0  0  0  0  0  0  0  0
   -0.0538    0.0318    0.0000 N   0  0  0  0  0  0  0  0  0  0  0  0
   -0.7683    0.4443    0.0000 C   0  0  0  0  0  0  0  0  0  0  0  0
   -0.7683    1.2693    0.0000 C   0  0  0  0  0  0  0  0  0  0  0  0
   -0.0538    1.6818    0.0000 C   0  0  0  0  0  0  0  0  0  0  0  0
    1.3751    2.5068    0.0000 C   0  0  0  0  0  0  0  0  0  0  0  0
    0.6607    2.9193    0.0000 O   0  0  0  0  0  0  0  0  0  0  0  0
    2.0896    2.9193    0.0000 C   0  0  0  0  0  0  0  0  0  0  0  0
    2.8041    2.5068    0.0000 C   0  0  0  0  0  0  0  0  0  0  0  0
    2.0896    3.7443    0.0000 C   0  0  0  0  0  0  0  0  0  0  0  0
    1.3751    4.1568    0.0000 C   0  0  0  0  0  0  0  0  0  0  0  0
    1.3751    4.9818    0.0000 C   0  0  0  0  0  0  0  0  0  0  0  0
    0.6607    5.3943    0.0000 O   0  0  0  0  0  0  0  0  0  0  0  0
   -0.0538    4.9818    0.0000 C   0  0  0  0  0  0  0  0  0  0  0  0
   -0.7683    5.3943    0.0000 C   0  0  0  0  0  0  0  0  0  0  0  0
   -1.4827    4.9818    0.0000 C   0  0  0  0  0  0  0  0  0  0  0  0
   -2.1972    5.3943    0.0000 C   0  0  0  0  0  0  0  0  0  0  0  0
   -2.1972    6.2193    0.0000 C   0  0  0  0  0  0  0  0  0  0  0  0
   -1.4827    6.6318    0.0000 C   0  0  0  0  0  0  0  0  0  0  0  0
   -0.7683    6.2193    0.0000 C   0  0  0  0  0  0  0  0  0  0  0  0
    2.0896    5.3943    0.0000 C   0  0  0  0  0  0  0  0  0  0  0  0
    2.8041    4.9818    0.0000 C   0  0  0  0  0  0  0  0  0  0  0  0
    3.5185    5.3943    0.0000 Cl  0  0  0  0  0  0  0  0  0  0  0  0
    2.8041    4.1568    0.0000 C   0  0  0  0  0  0  0  0  0  0  0  0
    5.6620    2.5068    0.0000 H   0  0  0  0  0  0  0  0  0  0  0  0
    4.9475    3.7443    0.0000 H   0  0  0  0  0  0  0  0  0  0  0  0
    3.7797    3.1961    0.0000 H   0  0  0  0  0  0  0  0  0  0  0  0
    3.4094    2.5548    0.0000 H   0  0  0  0  0  0  0  0  0  0  0  0
    5.6620    1.6818    0.0000 H   0  0  0  0  0  0  0  0  0  0  0  0
    5.6620    0.0318    0.0000 H   0  0  0  0  0  0  0  0  0  0  0  0
    4.2330   -0.7932    0.0000 H   0  0  0  0  0  0  0  0  0  0  0  0
    2.8041    0.0318    0.0000 H   0  0  0  0  0  0  0  0  0  0  0  0
    2.0896    0.4443    0.0000 H   0  0  0  0  0  0  0  0  0  0  0  0
    1.3751    0.0318    0.0000 H   0  0  0  0  0  0  0  0  0  0  0  0
   -1.4827    0.0318    0.0000 H   0  0  0  0  0  0  0  0  0  0  0  0
   -1.4827    1.6818    0.0000 H   0  0  0  0  0  0  0  0  0  0  0  0
   -0.0538    2.5068    0.0000 H   0  0  0  0  0  0  0  0  0  0  0  0
    2.9859    3.3115    0.0000 H   0  0  0  0  0  0  0  0  0  0  0  0
    0.6607    3.7443    0.0000 H   0  0  0  0  0  0  0  0  0  0  0  0
   -0.4241    4.2445    0.0000 H   0  0  0  0  0  0  0  0  0  0  0  0
    0.3165    4.2445    0.0000 H   0  0  0  0  0  0  0  0  0  0  0  0
   -1.4827    4.1568    0.0000 H   0  0  0  0  0  0  0  0  0  0  0  0
   -2.9117    4.9818    0.0000 H   0  0  0  0  0  0  0  0  0  0  0  0
   -2.9117    6.6318    0.0000 H   0  0  0  0  0  0  0  0  0  0  0  0
   -1.4827    7.4568    0.0000 H   0  0  0  0  0  0  0  0  0  0  0  0
   -0.0538    6.6318    0.0000 H   0  0  0  0  0  0  0  0  0  0  0  0
    2.0896    6.2193    0.0000 H   0  0  0  0  0  0  0  0  0  0  0  0
    3.6245    4.2440    0.0000 H   0  0  0  0  0  0  0  0  0  0  0  0
  1  2  1  0  0  0  0
  2  3  1  0  0  0  0
  3  4  4  0  0  0  0
  4  5  4  0  0  0  0
  5  6  4  0  0  0  0
  6  7  4  0  0  0  0
  7  8  4  0  0  0  0
  8  9  1  0  0  0  0
  9 10  2  0  0  0  0
 10 11  1  0  0  0  0
 11 12  1  0  0  0  0
 12 13  4  0  0  0  0
 13 14  4  0  0  0  0
 14 15  4  0  0  0  0
 15 16  4  0  0  0  0
 16 17  4  0  0  0  0
 11 18  1  0  0  0  0
 18 19  2  0  0  0  0
 18 20  1  0  0  0  0
 20 21  2  0  0  0  0
 20 22  1  0  0  0  0
 22 23  4  0  0  0  0
 23 24  4  0  0  0  0
 24 25  1  0  0  0  0
 25 26  1  0  0  0  0
 26 27  1  0  0  0  0
 27 28  4  0  0  0  0
 28 29  4  0  0  0  0
 29 30  4  0  0  0  0
 30 31  4  0  0  0  0
 31 32  4  0  0  0  0
 24 33  4  0  0  0  0
 33 34  4  0  0  0  0
 34 35  1  0  0  0  0
 34 36  4  0  0  0  0
  8  3  4  0  0  0  0
 21  9  1  0  0  0  0
 36 22  4  0  0  0  0
 17 12  4  0  0  0  0
 32 27  4  0  0  0  0
  1 37  1  0  0  0  0
  1 38  1  0  0  0  0
  2 39  1  0  0  0  0
  2 40  1  0  0  0  0
  4 41  1  0  0  0  0
  5 42  1  0  0  0  0
  6 43  1  0  0  0  0
  7 44  1  0  0  0  0
 10 45  1  0  0  0  0
 13 46  1  0  0  0  0
 15 47  1  0  0  0  0
 16 48  1  0  0  0  0
 17 49  1  0  0  0  0
 21 50  1  0  0  0  0
 23 51  1  0  0  0  0
 26 52  1  0  0  0  0
 26 53  1  0  0  0  0
 28 54  1  0  0  0  0
 29 55  1  0  0  0  0
 30 56  1  0  0  0  0
 31 57  1  0  0  0  0
 32 58  1  0  0  0  0
 33 59  1  0  0  0  0
 36 60  1  0  0  0  0
M  END
> <Compound>
7

>  <SMILE>
NCC1=CC=CC=C1C1=CN(C2=CN=CC=C2)C(=O)C(=C1)C1=CC(OCC2=CC=CC=C2)=CC(Cl)=C1

> <Relation>
=

>  <IC50 (??M)>
0.28

> <Bond Type>
Non-covalent

> <References>
https://doi.org/10.1021/acscentsci.1c00039

> <Year>
2020

> <StandardizerResult>
Remove Explicit Hydrogens (ID: RemoveExplicitH)
Dearomatize (ID: Dearomatize)
Clear Stereo (ID: ClearStereo)
Wedge Clean (ID: WedgeClean)
Mesomerize (ID: Mesomerize)
Tautomerize (ID: Tautomerize)
Aromatize (ID: Aromatize)
Add Explicit Hydrogens (ID: AddExplicitH)
Neutralize (ID: Neutralize)
Clean 2D (ID: Clean2D)

> <Molecule (InChiKey)>
ZTUZPGBUJYFAIC-UHFFFAOYSA-N

> <Outcome>
Active

> <IC50 (uM)>
0.28

> <SMILES>
NCC1=CC=CC=C1C1=CN(C2=CN=CC=C2)C(=O)C(=C1)C1=CC(OCC2=CC=CC=C2)=CC(Cl)=C1

$$$$

  Mrv2016 04192109512D          

 63 65  0  0  0  0            999 V2000
    3.5656    0.5731    0.0000 C   0  0  0  0  0  0  0  0  0  0  0  0
    2.8511    0.1606    0.0000 C   0  0  0  0  0  0  0  0  0  0  0  0
    2.4386    0.8751    0.0000 C   0  0  0  0  0  0  0  0  0  0  0  0
    3.2636   -0.5538    0.0000 C   0  0  0  0  0  0  0  0  0  0  0  0
    2.1367   -0.2519    0.0000 N   0  0  0  0  0  0  0  0  0  0  0  0
    1.4222    0.1606    0.0000 C   0  0  0  0  0  0  0  0  0  0  0  0
    1.4222    0.9856    0.0000 O   0  0  0  0  0  0  0  0  0  0  0  0
    0.7077   -0.2519    0.0000 C   0  0  0  0  0  0  0  0  0  0  0  0
    0.7077   -1.0769    0.0000 N   0  0  0  0  0  0  0  0  0  0  0  0
    1.4222   -1.4894    0.0000 C   0  0  0  0  0  0  0  0  0  0  0  0
    2.1367   -1.0769    0.0000 O   0  0  0  0  0  0  0  0  0  0  0  0
    1.4222   -2.3144    0.0000 C   0  0  0  0  0  0  0  0  0  0  0  0
    0.7547   -2.7993    0.0000 C   0  0  0  0  0  0  0  0  0  0  0  0
    1.0097   -3.5839    0.0000 C   0  0  0  0  0  0  0  0  0  0  0  0
    1.8347   -3.5839    0.0000 C   0  0  0  0  0  0  0  0  0  0  0  0
    2.0896   -2.7993    0.0000 O   0  0  0  0  0  0  0  0  0  0  0  0
   -0.0068   -1.4894    0.0000 C   0  0  0  0  0  0  0  0  0  0  0  0
   -0.0068   -2.3144    0.0000 C   0  0  0  0  0  0  0  0  0  0  0  0
   -0.7212   -2.7269    0.0000 C   0  0  0  0  0  0  0  0  0  0  0  0
   -1.4357   -2.3144    0.0000 C   0  0  0  0  0  0  0  0  0  0  0  0
   -1.4357   -1.4894    0.0000 C   0  0  0  0  0  0  0  0  0  0  0  0
   -0.7212   -1.0769    0.0000 C   0  0  0  0  0  0  0  0  0  0  0  0
   -2.1502   -2.7269    0.0000 C   0  0  0  0  0  0  0  0  0  0  0  0
   -2.8646   -3.1394    0.0000 C   0  0  0  0  0  0  0  0  0  0  0  0
   -2.5627   -2.0124    0.0000 C   0  0  0  0  0  0  0  0  0  0  0  0
   -1.7377   -3.4413    0.0000 C   0  0  0  0  0  0  0  0  0  0  0  0
   -0.0068    0.1606    0.0000 C   0  0  0  0  0  0  0  0  0  0  0  0
   -0.7212   -0.2519    0.0000 C   0  0  0  0  0  0  0  0  0  0  0  0
   -1.4357    0.1606    0.0000 N   0  0  0  0  0  0  0  0  0  0  0  0
   -1.4357    0.9856    0.0000 C   0  0  0  0  0  0  0  0  0  0  0  0
   -0.7212    1.3981    0.0000 C   0  0  0  0  0  0  0  0  0  0  0  0
   -0.0068    0.9856    0.0000 C   0  0  0  0  0  0  0  0  0  0  0  0
    3.9781   -0.1413    0.0000 H   0  0  0  0  0  0  0  0  0  0  0  0
    4.2801    0.9856    0.0000 H   0  0  0  0  0  0  0  0  0  0  0  0
    3.1531    1.2876    0.0000 H   0  0  0  0  0  0  0  0  0  0  0  0
    2.3309    1.6930    0.0000 H   0  0  0  0  0  0  0  0  0  0  0  0
    1.6417    1.0886    0.0000 H   0  0  0  0  0  0  0  0  0  0  0  0
    1.9364    0.2206    0.0000 H   0  0  0  0  0  0  0  0  0  0  0  0
    2.4457   -0.6615    0.0000 H   0  0  0  0  0  0  0  0  0  0  0  0
    3.0501   -1.3507    0.0000 H   0  0  0  0  0  0  0  0  0  0  0  0
    3.9181   -1.0561    0.0000 H   0  0  0  0  0  0  0  0  0  0  0  0
    1.4222   -0.6644    0.0000 H   0  0  0  0  0  0  0  0  0  0  0  0
   -0.0068   -0.6644    0.0000 H   0  0  0  0  0  0  0  0  0  0  0  0
    0.1025   -3.3044    0.0000 H   0  0  0  0  0  0  0  0  0  0  0  0
    0.8869   -4.3997    0.0000 H   0  0  0  0  0  0  0  0  0  0  0  0
    2.3196   -4.2514    0.0000 H   0  0  0  0  0  0  0  0  0  0  0  0
    0.7165   -1.9175    0.0000 H   0  0  0  0  0  0  0  0  0  0  0  0
   -0.7212   -3.5519    0.0000 H   0  0  0  0  0  0  0  0  0  0  0  0
   -2.1502   -1.0769    0.0000 H   0  0  0  0  0  0  0  0  0  0  0  0
   -0.7212   -1.9019    0.0000 H   0  0  0  0  0  0  0  0  0  0  0  0
   -3.2771   -2.4249    0.0000 H   0  0  0  0  0  0  0  0  0  0  0  0
   -3.5791   -3.5519    0.0000 H   0  0  0  0  0  0  0  0  0  0  0  0
   -2.4521   -3.8538    0.0000 H   0  0  0  0  0  0  0  0  0  0  0  0
   -1.7447   -1.9047    0.0000 H   0  0  0  0  0  0  0  0  0  0  0  0
   -2.3491   -1.2155    0.0000 H   0  0  0  0  0  0  0  0  0  0  0  0
   -3.2172   -1.5102    0.0000 H   0  0  0  0  0  0  0  0  0  0  0  0
   -1.6300   -4.2593    0.0000 H   0  0  0  0  0  0  0  0  0  0  0  0
   -0.9408   -3.6549    0.0000 H   0  0  0  0  0  0  0  0  0  0  0  0
   -1.2354   -2.7868    0.0000 H   0  0  0  0  0  0  0  0  0  0  0  0
   -1.4357   -0.6644    0.0000 H   0  0  0  0  0  0  0  0  0  0  0  0
   -2.1502    1.3981    0.0000 H   0  0  0  0  0  0  0  0  0  0  0  0
   -0.7212    2.2231    0.0000 H   0  0  0  0  0  0  0  0  0  0  0  0
    0.7077    1.3981    0.0000 H   0  0  0  0  0  0  0  0  0  0  0  0
  1  2  1  0  0  0  0
  2  3  1  0  0  0  0
  2  4  1  0  0  0  0
  2  5  1  0  0  0  0
  5  6  1  0  0  0  0
  6  7  2  0  0  0  0
  8  6  1  0  0  0  0
  8  9  1  0  0  0  0
  9 10  1  0  0  0  0
 10 11  2  0  0  0  0
 10 12  1  0  0  0  0
 12 13  4  0  0  0  0
 13 14  4  0  0  0  0
 14 15  4  0  0  0  0
 15 16  4  0  0  0  0
  9 17  1  0  0  0  0
 17 18  4  0  0  0  0
 18 19  4  0  0  0  0
 19 20  4  0  0  0  0
 20 21  4  0  0  0  0
 21 22  4  0  0  0  0
 20 23  1  0  0  0  0
 23 24  1  0  0  0  0
 23 25  1  0  0  0  0
 23 26  1  0  0  0  0
  8 27  1  0  0  0  0
 27 28  4  0  0  0  0
 28 29  4  0  0  0  0
 29 30  4  0  0  0  0
 30 31  4  0  0  0  0
 31 32  4  0  0  0  0
 16 12  4  0  0  0  0
 22 17  4  0  0  0  0
 32 27  4  0  0  0  0
  1 33  1  0  0  0  0
  1 34  1  0  0  0  0
  1 35  1  0  0  0  0
  3 36  1  0  0  0  0
  3 37  1  0  0  0  0
  3 38  1  0  0  0  0
  4 39  1  0  0  0  0
  4 40  1  0  0  0  0
  4 41  1  0  0  0  0
  5 42  1  0  0  0  0
  8 43  1  0  0  0  0
 13 44  1  0  0  0  0
 14 45  1  0  0  0  0
 15 46  1  0  0  0  0
 18 47  1  0  0  0  0
 19 48  1  0  0  0  0
 21 49  1  0  0  0  0
 22 50  1  0  0  0  0
 24 51  1  0  0  0  0
 24 52  1  0  0  0  0
 24 53  1  0  0  0  0
 25 54  1  0  0  0  0
 25 55  1  0  0  0  0
 25 56  1  0  0  0  0
 26 57  1  0  0  0  0
 26 58  1  0  0  0  0
 26 59  1  0  0  0  0
 28 60  1  0  0  0  0
 30 61  1  0  0  0  0
 31 62  1  0  0  0  0
 32 63  1  0  0  0  0
M  END
> <Compound>
ML188; 27a

>  <SMILE>
CC(C)(C)NC(=O)[C@H](N(C(=O)C1=CC=CO1)C1=CC=C(C=C1)C(C)(C)C)C1=CN=CC=C1

> <Relation>
=

>  <IC50 (??M)>
2.5

> <Bond Type>
Non-covalent

> <References>
https://doi.org/10.3390/v13020174; 10.1101/2020.12.19.423537

> <Year>
2020

> <StandardizerResult>
Remove Explicit Hydrogens (ID: RemoveExplicitH)
Dearomatize (ID: Dearomatize)
Clear Stereo (ID: ClearStereo)
Wedge Clean (ID: WedgeClean)
Mesomerize (ID: Mesomerize)
Tautomerize (ID: Tautomerize)
Aromatize (ID: Aromatize)
Add Explicit Hydrogens (ID: AddExplicitH)
Neutralize (ID: Neutralize)
Clean 2D (ID: Clean2D)

> <Molecule (InChiKey)>
JXGIYKRRPGCLFV-UHFFFAOYSA-N

> <Outcome>
Active

> <IC50 (uM)>
3.715

> <SMILES>
CC(C)(C)NC(=O)[C@H](N(C(=O)C1=CC=CO1)C1=CC=C(C=C1)C(C)(C)C)C1=CN=CC=C1; CC(C)(C)NC(=O)C(N(C(=O)C1=CC=CO1)C1=CC=C(C=C1)C(C)(C)C)C1=CC=CN=C1

$$$$
