ligprep_COVID_compounds-withfrags-smallmolecules-forvalidation.maegz:4
                    3D
 Structure written by MMmdl.
 93 97  0  0  1  0            999 V2000
   -1.9899    2.1809   22.2042 C   0  0  0  0  0  0
   -0.7890    2.3633   23.1529 C   0  0  0  0  0  0
   -1.1217    3.4623   24.1756 C   0  0  0  0  0  0
   -0.4775    1.0526   23.9039 C   0  0  0  0  0  0
    0.3881    2.8235   22.4136 N   0  0  0  0  0  0
    1.0585    2.1960   21.4311 C   0  0  0  0  0  0
    0.7217    1.1002   20.9810 O   0  0  0  0  0  0
    2.3174    2.8645   20.8385 C   0  0  1  0  0  0
    1.9224    3.6349   19.5574 C   0  0  0  0  0  0
    1.2845    4.9094   19.8761 N   0  0  0  0  0  0
    0.7248    5.5507   18.6811 C   0  0  0  0  0  0
    1.7041    5.8902   17.5619 C   0  0  0  0  0  0
    2.2917    7.1684   17.4815 C   0  0  0  0  0  0
    3.1746    7.4449   16.4202 C   0  0  0  0  0  0
    3.4497    6.4235   15.4894 C   0  0  0  0  0  0
    2.8905    5.1974   15.5493 N   0  0  0  0  0  0
    2.0332    4.9457   16.5627 C   0  0  0  0  0  0
    2.2901    5.7314   20.5458 C   0  0  0  0  0  0
    2.6649    5.0939   21.8989 C   0  0  0  0  0  0
    3.1721    3.6980   21.7693 N   0  3  1  0  0  0
    3.4900    3.1216   23.1133 C   0  0  0  0  0  0
    3.9177    1.6316   23.1473 C   0  0  1  0  0  0
    5.4353    1.4163   23.2317 C   0  0  0  0  0  0
    5.8413   -0.0569   22.9662 C   0  0  1  0  0  0
    6.7678   -0.1741   21.7587 C   0  0  0  0  0  0
    6.1657    0.0557   20.3920 C   0  0  0  0  0  0
    6.2906   -0.9652   19.4348 C   0  0  0  0  0  0
    5.8276   -0.7745   18.1261 C   0  0  0  0  0  0
    5.1985    0.4355   17.7900 C   0  0  0  0  0  0
    5.0631    1.4486   18.7309 C   0  0  0  0  0  0
    5.5724    1.2787   20.0191 C   0  0  0  0  0  0
    6.5816   -0.6668   24.1695 C   0  0  0  0  0  0
    7.6231   -0.1448   24.5706 O   0  0  0  0  0  0
    6.0519   -1.7640   24.7300 N   0  0  0  0  0  0
    6.5460   -2.4043   25.9517 C   0  0  2  0  0  0
    7.6954   -3.3649   25.7397 C   0  0  0  0  0  0
    8.8668   -3.1562   24.9836 C   0  0  0  0  0  0
    9.8353   -4.1812   24.9466 C   0  0  0  0  0  0
    9.6243   -5.3906   25.6443 C   0  0  0  0  0  0
    8.4434   -5.5961   26.3847 C   0  0  0  0  0  0
    7.4929   -4.5619   26.4188 C   0  0  0  0  0  0
    6.1792   -4.5780   27.1471 C   0  0  0  0  0  0
    5.4732   -3.2833   26.6691 C   0  0  2  0  0  0
    4.4429   -3.6630   25.7719 O   0  0  0  0  0  0
    3.3485    1.0440   24.3004 O   0  0  0  0  0  0
   -2.8954    1.9350   22.7604 H   0  0  0  0  0  0
   -1.8280    1.3763   21.4875 H   0  0  0  0  0  0
   -2.1913    3.0907   21.6380 H   0  0  0  0  0  0
   -1.3471    4.4106   23.6858 H   0  0  0  0  0  0
   -0.2928    3.6371   24.8619 H   0  0  0  0  0  0
   -1.9912    3.1939   24.7769 H   0  0  0  0  0  0
   -1.3199    0.7471   24.5247 H   0  0  0  0  0  0
    0.3873    1.1657   24.5572 H   0  0  0  0  0  0
   -0.2690    0.2280   23.2233 H   0  0  0  0  0  0
    0.7177    3.7407   22.6704 H   0  0  0  0  0  0
    2.9439    2.0464   20.4918 H   0  0  0  0  0  0
    2.7750    3.7889   18.9079 H   0  0  0  0  0  0
    1.2274    3.0315   18.9730 H   0  0  0  0  0  0
   -0.0552    4.9075   18.2715 H   0  0  0  0  0  0
    0.2179    6.4684   18.9860 H   0  0  0  0  0  0
    2.0629    7.9296   18.2146 H   0  0  0  0  0  0
    3.6359    8.4159   16.3210 H   0  0  0  0  0  0
    4.1224    6.6051   14.6655 H   0  0  0  0  0  0
    1.5911    3.9604   16.5711 H   0  0  0  0  0  0
    3.1747    5.8571   19.9221 H   0  0  0  0  0  0
    1.8855    6.7294   20.7186 H   0  0  0  0  0  0
    3.4373    5.7023   22.3735 H   0  0  0  0  0  0
    1.7996    5.1280   22.5609 H   0  0  0  0  0  0
    4.2633    3.7343   23.5790 H   0  0  0  0  0  0
    2.6148    3.2548   23.7491 H   0  0  0  0  0  0
    3.5227    1.0726   22.3032 H   0  0  0  0  0  0
    5.9656    2.0972   22.5742 H   0  0  0  0  0  0
    5.8174    1.7781   24.1715 H   0  0  0  0  0  0
    4.9602   -0.6671   22.7692 H   0  0  0  0  0  0
    7.5751    0.5340   21.8769 H   0  0  0  0  0  0
    7.1752   -1.1830   21.7587 H   0  0  0  0  0  0
    6.7592   -1.8999   19.7020 H   0  0  0  0  0  0
    5.9302   -1.5595   17.3909 H   0  0  0  0  0  0
    4.7754    0.6362   16.8356 H   0  0  0  0  0  0
    4.5900    2.3745   18.4449 H   0  0  0  0  0  0
    5.4981    2.1358   20.6623 H   0  0  0  0  0  0
    5.2162   -2.1634   24.3195 H   0  0  0  0  0  0
    6.8931   -1.6394   26.6503 H   0  0  0  0  0  0
    9.0354   -2.2344   24.4518 H   0  0  0  0  0  0
   10.7457   -4.0464   24.3803 H   0  0  0  0  0  0
   10.3753   -6.1653   25.6107 H   0  0  0  0  0  0
    8.2822   -6.5283   26.9118 H   0  0  0  0  0  0
    5.6169   -5.4897   26.9366 H   0  0  0  0  0  0
    6.3793   -4.5429   28.2178 H   0  0  0  0  0  0
    5.0076   -2.7505   27.4991 H   0  0  0  0  0  0
    4.8464   -4.1258   25.0518 H   0  0  0  0  0  0
    3.5199    0.1122   24.2859 H   0  0  0  0  0  0
    4.0749    3.8313   21.3050 H   0  0  0  0  0  0
  1  2  1  0  0  0
  1 46  1  0  0  0
  1 47  1  0  0  0
  1 48  1  0  0  0
  2  3  1  0  0  0
  2  4  1  0  0  0
  2  5  1  0  0  0
  3 49  1  0  0  0
  3 50  1  0  0  0
  3 51  1  0  0  0
  4 52  1  0  0  0
  4 53  1  0  0  0
  4 54  1  0  0  0
  5  6  1  0  0  0
  5 55  1  0  0  0
  6  7  2  0  0  0
  6  8  1  0  0  0
  8  9  1  0  0  0
  8 20  1  0  0  0
  8 56  1  0  0  0
  9 10  1  0  0  0
  9 57  1  0  0  0
  9 58  1  0  0  0
 10 11  1  0  0  0
 10 18  1  0  0  0
 11 12  1  0  0  0
 11 59  1  0  0  0
 11 60  1  0  0  0
 12 13  2  0  0  0
 12 17  1  0  0  0
 13 14  1  0  0  0
 13 61  1  0  0  0
 14 15  2  0  0  0
 14 62  1  0  0  0
 15 16  1  0  0  0
 15 63  1  0  0  0
 16 17  2  0  0  0
 17 64  1  0  0  0
 18 19  1  0  0  0
 18 65  1  0  0  0
 18 66  1  0  0  0
 19 20  1  0  0  0
 19 67  1  0  0  0
 19 68  1  0  0  0
 20 21  1  0  0  0
 20 93  1  0  0  0
 21 22  1  0  0  0
 21 69  1  0  0  0
 21 70  1  0  0  0
 22 23  1  0  0  0
 22 45  1  0  0  0
 22 71  1  0  0  0
 23 24  1  0  0  0
 23 72  1  0  0  0
 23 73  1  0  0  0
 24 25  1  0  0  0
 24 32  1  0  0  0
 24 74  1  0  0  0
 25 26  1  0  0  0
 25 75  1  0  0  0
 25 76  1  0  0  0
 26 27  2  0  0  0
 26 31  1  0  0  0
 27 28  1  0  0  0
 27 77  1  0  0  0
 28 29  2  0  0  0
 28 78  1  0  0  0
 29 30  1  0  0  0
 29 79  1  0  0  0
 30 31  2  0  0  0
 30 80  1  0  0  0
 31 81  1  0  0  0
 32 33  2  0  0  0
 32 34  1  0  0  0
 34 35  1  0  0  0
 34 82  1  0  0  0
 35 36  1  0  0  0
 35 43  1  0  0  0
 35 83  1  0  0  0
 36 37  2  0  0  0
 36 41  1  0  0  0
 37 38  1  0  0  0
 37 84  1  0  0  0
 38 39  2  0  0  0
 38 85  1  0  0  0
 39 40  1  0  0  0
 39 86  1  0  0  0
 40 41  2  0  0  0
 40 87  1  0  0  0
 41 42  1  0  0  0
 42 43  1  0  0  0
 42 88  1  0  0  0
 42 89  1  0  0  0
 43 44  1  0  0  0
 43 90  1  0  0  0
 44 91  1  0  0  0
 45 92  1  0  0  0
M  CHG  1  20   1
M  END
> <s_m_entry_id>
6

> <s_m_entry_name>
Compounds-withfrags-for-validation-docking.1913

> <s_m_Source_Path>
/home/rodolpho/data/melina/maestro/glide-dock_XP_5RGK_M-PRO_VALIDATION

> <s_m_Source_File>
glide-dock_XP_5RGK_M-PRO_VALIDATION_pv.maegz

> <i_m_Source_File_Index>
6

> <CID>
Indinavir

> <Potency>
43.13

> <pIC50>
4.36522

> <Source>
https://doi.org/10.1101/2020.03.23.004580

> <smiles>
C(C(C([H])([H])[H])(C([H])([H])[H])N(C(=O)C1(C([H])([H])N(C(C2=C([H])C([H])=C([H])N=C2[H])([H])[H])C([H])([H])C([H])([H])N1C(C(C(C(C(C1=C([H])C([H])=C([H])C([H])=C1[H])([H])[H])(C(=O)N(C1(C2=C(C(=C(C([H])=C2C([H])([H])C1(O[H])[H])[H])[H])[H])[H])[H])[H])([H])[H])(O[H])[H])([H])[H])[H])[H])([H])([H])[H]

> <Outcome>
Inactive

> <StandardizerResult>
Clear Stereo (ID: ClearStereo)
Wedge Clean (ID: WedgeClean)
Mesomerize (ID: Mesomerize)
Tautomerize (ID: Tautomerize)
Aromatize (ID: Aromatize)
Add Explicit Hydrogens (ID: AddExplicitH)
Neutralize (ID: Neutralize)
Clean 2D (ID: Clean2D)

> <chiral flag>
0

> <version>
0

> <i_lp_mmshare_version>
41011

> <i_f3d_flags>
0

> <s_epik_input>
W2NIXTFuW2NIXVtjSF1bY0hdYzFbQ0gyXU4oW0NIMl1bQ0BASF0yQyg9TylbTkhdQyhbQ0gzXSkoW0NIM10pW0NIM10pW0NIMl1bQ0gyXU4yW0NIMl1bQ0BIXShbT0hdKVtDSDJdW0NAQEhdKFtDSDJdYzNbY0hdW2NIXVtjSF1bY0hdW2NIXTMpQyg9TylbTkhdW0NASF00W0NAQEhdKFtPSF0pW0NIMl1jKGM0NSlbY0hdW2NIXVtjSF1bY0hdNQ==

> <s_epik_cmdline>
J2VwaWtfcHl0aG9uJywgJy1waHQnLCAnMC41JywgJy1waCcsICc3LjQnLCAnLXRuJywgJzgnLCAnLW1hJywgJzIwMCcsICctaW1hZScsICc8aW5maWxlLm1hZT4nLCAnLW9tYWUnLCAnPG91dGZpbGUubWFlPic=

> <r_epik_Ionization_Penalty>
0.3395

> <r_epik_Ionization_Penalty_Charging>
0.3352

> <r_epik_Ionization_Penalty_Neutral>
0.0044

> <r_epik_State_Penalty>
0.5191

> <r_epik_Charging_Adjusted_Penalty>
0.854238

> <i_epik_Tot_Q>
1

> <i_epik_Tot_abs_Q>
1

> <s_lp_Force_Field>
OPLS3

> <r_lp_Energy>
54.7504

> <b_lp_Chiralities_Consistent>
1

> <s_lp_Variant>
ligprep_COVID_compounds-withfrags-smallmolecules-forvalidation.maegz:4-20

> <i_glide_original_lignum>
39

> <s_i_glide_gridfile>
glide-grid_5RGK_M-PRO_COVID

> <i_i_glide_lignum>
39

> <r_i_docking_score>
-7.80986565367505

> <r_i_glide_ligand_efficiency>
-0.173552570081668

> <r_i_glide_ligand_efficiency_sa>
-0.617307973717232

> <r_i_glide_ligand_efficiency_ln>
-1.62480009160124

> <r_glide_XP_GScore>
-8.32893765367505

> <r_i_glide_gscore>
-8.32893765367505

> <r_i_glide_evdw>
-38.4277191162109

> <r_i_glide_ecoul>
-21.2601890563965

> <r_i_glide_energy>
-59.6879081726074

> <r_i_glide_einternal>
0.0

> <r_i_glide_emodel>
-90.4253187258044

> <r_glide_XP_HBond>
-3.21789594245609

> <i_i_glide_confnum>
1

> <i_i_glide_posenum>
3

> <r_i_glide_eff_state_penalty>
0.519072

> <i_glide_XP_PoseRank>
1

> <r_lp_tautomer_probability>


> <s_epik_Chemistry_Notes>


> <MW>


> <cLogP>


> <TPSA>


> <Rotatable Bonds>


> <Fraction sp3>


> <HBA>


> <HBD>


> <Structure ID>


> <Submission Fragments>


$$$$
ligprep_COVID_compounds-withfrags-smallmolecules-forvalidation.maegz:4
                    3D
 Structure written by MMmdl.
 93 97  0  0  1  0            999 V2000
    5.4461    7.3192   29.2615 C   0  0  0  0  0  0
    6.7842    7.7348   28.6189 C   0  0  0  0  0  0
    6.7443    9.2527   28.3510 C   0  0  0  0  0  0
    7.9445    7.4225   29.5872 C   0  0  0  0  0  0
    6.9700    6.8914   27.4275 N   0  0  0  0  0  0
    7.1168    7.1879   26.1229 C   0  0  0  0  0  0
    7.1148    8.3277   25.6710 O   0  0  0  0  0  0
    7.2970    5.9695   25.1845 C   0  0  2  0  0  0
    8.7473    5.4347   25.1712 C   0  0  0  0  0  0
    9.6366    6.3958   24.5206 N   0  0  0  0  0  0
   11.0699    6.1293   24.6734 C   0  0  0  0  0  0
   11.7103    5.0745   23.7709 C   0  0  0  0  0  0
   12.8179    5.4354   22.9741 C   0  0  0  0  0  0
   13.4655    4.4478   22.2152 C   0  0  0  0  0  0
   12.9810    3.1283   22.2876 C   0  0  0  0  0  0
   11.9073    2.7703   23.0184 N   0  0  0  0  0  0
   11.2922    3.7237   23.7451 C   0  0  0  0  0  0
    9.2595    6.5808   23.1201 C   0  0  0  0  0  0
    7.7903    7.0458   23.0022 C   0  0  0  0  0  0
    6.8583    6.1614   23.7591 N   0  3  2  0  0  0
    5.4177    6.4791   23.5264 C   0  0  0  0  0  0
    4.4263    5.3645   23.9751 C   0  0  1  0  0  0
    3.2399    5.1799   22.9851 C   0  0  0  0  0  0
    2.2457    4.0362   23.3332 C   0  0  1  0  0  0
    0.8244    4.3087   22.7715 C   0  0  0  0  0  0
   -0.1406    4.8304   23.8316 C   0  0  0  0  0  0
    0.0865    6.0792   24.4563 C   0  0  0  0  0  0
   -0.7850    6.5388   25.4641 C   0  0  0  0  0  0
   -1.8932    5.7618   25.8466 C   0  0  0  0  0  0
   -2.1363    4.5245   25.2149 C   0  0  0  0  0  0
   -1.2616    4.0597   24.2127 C   0  0  0  0  0  0
    2.7157    2.6040   22.9788 C   0  0  0  0  0  0
    2.1239    1.6618   23.5015 O   0  0  0  0  0  0
    3.7652    2.4176   22.1499 N   0  0  0  0  0  0
    4.3721    1.1031   21.9331 C   0  0  1  0  0  0
    4.9450    0.8181   20.5693 C   0  0  0  0  0  0
    4.4851    1.2568   19.3194 C   0  0  0  0  0  0
    5.1442    0.7758   18.1682 C   0  0  0  0  0  0
    6.2277   -0.1252   18.2693 C   0  0  0  0  0  0
    6.7109   -0.5080   19.5335 C   0  0  0  0  0  0
    6.0516   -0.0185   20.6702 C   0  0  0  0  0  0
    6.4128   -0.2842   22.1066 C   0  0  0  0  0  0
    5.5561    0.7478   22.8743 C   0  0  1  0  0  0
    6.3871    1.8836   23.0441 O   0  0  0  0  0  0
    5.0870    4.1350   24.1728 O   0  0  0  0  0  0
    5.2463    7.8727   30.1767 H   0  0  0  0  0  0
    5.4421    6.2620   29.5266 H   0  0  0  0  0  0
    4.6058    7.4924   28.5837 H   0  0  0  0  0  0
    5.9299    9.5180   27.6766 H   0  0  0  0  0  0
    7.6818    9.6182   27.9212 H   0  0  0  0  0  0
    6.5774    9.8109   29.2727 H   0  0  0  0  0  0
    7.7857    7.8924   30.5587 H   0  0  0  0  0  0
    8.8979    7.7936   29.2038 H   0  0  0  0  0  0
    8.0425    6.3486   29.7639 H   0  0  0  0  0  0
    6.9651    5.9092   27.6346 H   0  0  0  0  0  0
    6.6958    5.1795   25.6250 H   0  0  0  0  0  0
    9.0891    5.2576   26.1921 H   0  0  0  0  0  0
    8.7623    4.4769   24.6553 H   0  0  0  0  0  0
   11.5873    7.0710   24.4953 H   0  0  0  0  0  0
   11.2866    5.8805   25.7123 H   0  0  0  0  0  0
   13.1856    6.4522   22.9593 H   0  0  0  0  0  0
   14.3296    4.6860   21.6102 H   0  0  0  0  0  0
   13.4919    2.3291   21.7755 H   0  0  0  0  0  0
   10.4739    3.3698   24.3476 H   0  0  0  0  0  0
    9.9417    7.3221   22.6865 H   0  0  0  0  0  0
    9.3972    5.6464   22.5708 H   0  0  0  0  0  0
    7.6923    8.0669   23.3655 H   0  0  0  0  0  0
    7.5055    7.0550   21.9486 H   0  0  0  0  0  0
    5.1547    7.4322   23.9870 H   0  0  0  0  0  0
    5.2851    6.6363   22.4557 H   0  0  0  0  0  0
    4.0309    5.6300   24.9554 H   0  0  0  0  0  0
    2.6983    6.1245   22.9631 H   0  0  0  0  0  0
    3.5771    5.0630   21.9531 H   0  0  0  0  0  0
    2.1577    4.0192   24.4232 H   0  0  0  0  0  0
    0.8631    5.0319   21.9573 H   0  0  0  0  0  0
    0.3894    3.4087   22.3323 H   0  0  0  0  0  0
    0.9286    6.6894   24.1754 H   0  0  0  0  0  0
   -0.5984    7.4883   25.9473 H   0  0  0  0  0  0
   -2.5569    6.1078   26.6234 H   0  0  0  0  0  0
   -2.9840    3.9238   25.5091 H   0  0  0  0  0  0
   -1.4564    3.1018   23.7425 H   0  0  0  0  0  0
    4.2320    3.2167   21.7301 H   0  0  0  0  0  0
    3.6143    0.3334   22.0494 H   0  0  0  0  0  0
    3.6396    1.9240   19.2312 H   0  0  0  0  0  0
    4.7815    1.0744   17.1988 H   0  0  0  0  0  0
    6.6705   -0.5257   17.3712 H   0  0  0  0  0  0
    7.5593   -1.1702   19.6265 H   0  0  0  0  0  0
    6.1149   -1.3035   22.3519 H   0  0  0  0  0  0
    7.4788   -0.1768   22.3000 H   0  0  0  0  0  0
    5.2325    0.3918   23.8543 H   0  0  0  0  0  0
    6.6828    2.1519   22.1839 H   0  0  0  0  0  0
    5.3366    3.7777   23.3259 H   0  0  0  0  0  0
    6.9595    5.2510   23.3255 H   0  0  0  0  0  0
  1  2  1  0  0  0
  1 46  1  0  0  0
  1 47  1  0  0  0
  1 48  1  0  0  0
  2  3  1  0  0  0
  2  4  1  0  0  0
  2  5  1  0  0  0
  3 49  1  0  0  0
  3 50  1  0  0  0
  3 51  1  0  0  0
  4 52  1  0  0  0
  4 53  1  0  0  0
  4 54  1  0  0  0
  5  6  1  0  0  0
  5 55  1  0  0  0
  6  7  2  0  0  0
  6  8  1  0  0  0
  8  9  1  0  0  0
  8 20  1  0  0  0
  8 56  1  0  0  0
  9 10  1  0  0  0
  9 57  1  0  0  0
  9 58  1  0  0  0
 10 11  1  0  0  0
 10 18  1  0  0  0
 11 12  1  0  0  0
 11 59  1  0  0  0
 11 60  1  0  0  0
 12 13  2  0  0  0
 12 17  1  0  0  0
 13 14  1  0  0  0
 13 61  1  0  0  0
 14 15  2  0  0  0
 14 62  1  0  0  0
 15 16  1  0  0  0
 15 63  1  0  0  0
 16 17  2  0  0  0
 17 64  1  0  0  0
 18 19  1  0  0  0
 18 65  1  0  0  0
 18 66  1  0  0  0
 19 20  1  0  0  0
 19 67  1  0  0  0
 19 68  1  0  0  0
 20 21  1  0  0  0
 20 93  1  0  0  0
 21 22  1  0  0  0
 21 69  1  0  0  0
 21 70  1  0  0  0
 22 23  1  0  0  0
 22 45  1  0  0  0
 22 71  1  0  0  0
 23 24  1  0  0  0
 23 72  1  0  0  0
 23 73  1  0  0  0
 24 25  1  0  0  0
 24 32  1  0  0  0
 24 74  1  0  0  0
 25 26  1  0  0  0
 25 75  1  0  0  0
 25 76  1  0  0  0
 26 27  2  0  0  0
 26 31  1  0  0  0
 27 28  1  0  0  0
 27 77  1  0  0  0
 28 29  2  0  0  0
 28 78  1  0  0  0
 29 30  1  0  0  0
 29 79  1  0  0  0
 30 31  2  0  0  0
 30 80  1  0  0  0
 31 81  1  0  0  0
 32 33  2  0  0  0
 32 34  1  0  0  0
 34 35  1  0  0  0
 34 82  1  0  0  0
 35 36  1  0  0  0
 35 43  1  0  0  0
 35 83  1  0  0  0
 36 37  2  0  0  0
 36 41  1  0  0  0
 37 38  1  0  0  0
 37 84  1  0  0  0
 38 39  2  0  0  0
 38 85  1  0  0  0
 39 40  1  0  0  0
 39 86  1  0  0  0
 40 41  2  0  0  0
 40 87  1  0  0  0
 41 42  1  0  0  0
 42 43  1  0  0  0
 42 88  1  0  0  0
 42 89  1  0  0  0
 43 44  1  0  0  0
 43 90  1  0  0  0
 44 91  1  0  0  0
 45 92  1  0  0  0
M  CHG  1  20   1
M  END
> <s_m_entry_id>
11

> <s_m_entry_name>
Compounds-withfrags-for-validation-docking.1913

> <s_m_Source_Path>
/home/rodolpho/data/melina/maestro/glide-dock_XP_5RGK_M-PRO_VALIDATION

> <s_m_Source_File>
glide-dock_XP_5RGK_M-PRO_VALIDATION_pv.maegz

> <i_m_Source_File_Index>
11

> <CID>
Indinavir

> <Potency>
43.13

> <pIC50>
4.36522

> <Source>
https://doi.org/10.1101/2020.03.23.004580

> <smiles>
C(C(C([H])([H])[H])(C([H])([H])[H])N(C(=O)C1(C([H])([H])N(C(C2=C([H])C([H])=C([H])N=C2[H])([H])[H])C([H])([H])C([H])([H])N1C(C(C(C(C(C1=C([H])C([H])=C([H])C([H])=C1[H])([H])[H])(C(=O)N(C1(C2=C(C(=C(C([H])=C2C([H])([H])C1(O[H])[H])[H])[H])[H])[H])[H])[H])([H])[H])(O[H])[H])([H])[H])[H])[H])([H])([H])[H]

> <Outcome>
Inactive

> <StandardizerResult>
Clear Stereo (ID: ClearStereo)
Wedge Clean (ID: WedgeClean)
Mesomerize (ID: Mesomerize)
Tautomerize (ID: Tautomerize)
Aromatize (ID: Aromatize)
Add Explicit Hydrogens (ID: AddExplicitH)
Neutralize (ID: Neutralize)
Clean 2D (ID: Clean2D)

> <chiral flag>
0

> <version>
0

> <i_lp_mmshare_version>
41011

> <i_f3d_flags>
0

> <s_epik_input>
W2NIXTFuW2NIXVtjSF1bY0hdYzFbQ0gyXU4oW0NIMl1bQ0BIXTJDKD1PKVtOSF1DKFtDSDNdKShbQ0gzXSlbQ0gzXSlbQ0gyXVtDSDJdTjJbQ0gyXVtDQEhdKFtPSF0pW0NIMl1bQ0BASF0oW0NIMl1jM1tjSF1bY0hdW2NIXVtjSF1bY0hdMylDKD1PKVtOSF1bQ0BASF00W0NASF0oW09IXSlbQ0gyXWMoYzQ1KVtjSF1bY0hdW2NIXVtjSF01

> <s_epik_cmdline>
J2VwaWtfcHl0aG9uJywgJy1waHQnLCAnMC41JywgJy1waCcsICc3LjQnLCAnLXRuJywgJzgnLCAnLW1hJywgJzIwMCcsICctaW1hZScsICc8aW5maWxlLm1hZT4nLCAnLW9tYWUnLCAnPG91dGZpbGUubWFlPic=

> <r_epik_Ionization_Penalty>
0.3395

> <r_epik_Ionization_Penalty_Charging>
0.3352

> <r_epik_Ionization_Penalty_Neutral>
0.0044

> <r_epik_State_Penalty>
0.5191

> <r_epik_Charging_Adjusted_Penalty>
0.854238

> <i_epik_Tot_Q>
1

> <i_epik_Tot_abs_Q>
1

> <s_lp_Force_Field>
OPLS3

> <r_lp_Energy>
55.8147

> <b_lp_Chiralities_Consistent>
1

> <s_lp_Variant>
ligprep_COVID_compounds-withfrags-smallmolecules-forvalidation.maegz:4-30

> <i_glide_original_lignum>
49

> <s_i_glide_gridfile>
glide-grid_5RGK_M-PRO_COVID

> <i_i_glide_lignum>
49

> <r_i_docking_score>
-7.24815447619815

> <r_i_glide_ligand_efficiency>
-0.16107009947107

> <r_i_glide_ligand_efficiency_sa>
-0.57290915763524

> <r_i_glide_ligand_efficiency_ln>
-1.50793913482045

> <r_glide_XP_GScore>
-7.76722647619815

> <r_i_glide_gscore>
-7.76722647619815

> <r_i_glide_evdw>
-39.1475143432617

> <r_i_glide_ecoul>
-13.6492872238159

> <r_i_glide_energy>
-52.7968015670776

> <r_i_glide_einternal>
8.39151287078857

> <r_i_glide_emodel>
-85.4390346883351

> <r_glide_XP_HBond>
-1.63103040306346

> <i_i_glide_confnum>
5

> <i_i_glide_posenum>
6

> <r_i_glide_eff_state_penalty>
0.519072

> <i_glide_XP_PoseRank>
1

> <r_lp_tautomer_probability>


> <s_epik_Chemistry_Notes>


> <MW>


> <cLogP>


> <TPSA>


> <Rotatable Bonds>


> <Fraction sp3>


> <HBA>


> <HBD>


> <Structure ID>


> <Submission Fragments>


$$$$
ligprep_COVID_compounds-withfrags-smallmolecules-forvalidation.maegz:1
                    3D
 Structure written by MMmdl.
 43 45  0  0  1  0            999 V2000
   10.2341   -0.1630   25.0343 C   0  0  0  0  0  0
    9.0912    0.0211   26.0452 C   0  0  0  0  0  0
    9.4364   -0.5642   27.4137 C   0  0  0  0  0  0
    7.8545   -0.5636   25.5692 N   0  0  0  0  0  0
    7.2990   -0.4784   24.3073 C   0  0  0  0  0  0
    6.9048    0.6724   23.7707 N   0  0  0  0  0  0
    6.5056    0.2816   22.5170 C   0  0  0  0  0  0
    6.0122    1.0533   21.4432 C   0  0  0  0  0  0
    5.7333    0.4499   20.2037 C   0  0  0  0  0  0
    5.9270   -0.9366   20.0521 C   0  0  0  0  0  0
    6.3750   -1.7249   21.1207 C   0  0  0  0  0  0
    6.6779   -1.1235   22.3480 C   0  0  0  0  0  0
    7.1926   -1.5899   23.5510 N   0  0  0  0  0  0
    7.6877   -2.9743   23.8996 C   0  0  1  0  0  0
    6.9504   -3.6219   25.0776 C   0  0  1  0  0  0
    5.5755   -3.2942   25.1034 O   0  0  0  0  0  0
    7.1725   -5.1152   24.8175 C   0  0  2  0  0  0
    8.1802   -5.5826   25.6982 O   0  0  0  0  0  0
    7.6796   -5.1689   23.3550 C   0  0  1  0  0  0
    7.0357   -6.2019   22.4035 C   0  0  0  0  0  0
    5.6289   -6.2998   22.5515 O   0  0  0  0  0  0
    7.5240   -3.8521   22.8372 O   0  0  0  0  0  0
    5.5755   -1.7094   18.5705 Cl  0  0  0  0  0  0
    5.1683    1.4084   18.8809 Cl  0  0  0  0  0  0
   11.1764    0.2246   25.4229 H   0  0  0  0  0  0
   10.0258    0.3676   24.1046 H   0  0  0  0  0  0
   10.3753   -1.2140   24.7865 H   0  0  0  0  0  0
    8.9130    1.0904   26.1668 H   0  0  0  0  0  0
   10.3734   -0.1650   27.7855 H   0  0  0  0  0  0
    9.5441   -1.6469   27.3647 H   0  0  0  0  0  0
    8.6656   -0.3360   28.1496 H   0  0  0  0  0  0
    7.1281   -0.1818   26.1703 H   0  0  0  0  0  0
    5.8815    2.1178   21.5697 H   0  0  0  0  0  0
    6.5319   -2.7758   20.9796 H   0  0  0  0  0  0
    8.7525   -2.8464   24.1005 H   0  0  0  0  0  0
    7.3949   -3.2889   26.0174 H   0  0  0  0  0  0
    5.2319   -3.3627   24.2180 H   0  0  0  0  0  0
    6.2598   -5.6882   24.9832 H   0  0  0  0  0  0
    8.0266   -6.4966   25.9022 H   0  0  0  0  0  0
    8.7571   -5.3475   23.3549 H   0  0  0  0  0  0
    7.2830   -5.9593   21.3716 H   0  0  0  0  0  0
    7.4622   -7.1895   22.5712 H   0  0  0  0  0  0
    5.3343   -7.1337   22.2052 H   0  0  0  0  0  0
  1  2  1  0  0  0
  1 25  1  0  0  0
  1 26  1  0  0  0
  1 27  1  0  0  0
  2  3  1  0  0  0
  2  4  1  0  0  0
  2 28  1  0  0  0
  3 29  1  0  0  0
  3 30  1  0  0  0
  3 31  1  0  0  0
  4  5  1  0  0  0
  4 32  1  0  0  0
  5  6  2  0  0  0
  5 13  1  0  0  0
  6  7  1  0  0  0
  7  8  2  0  0  0
  7 12  1  0  0  0
  8  9  1  0  0  0
  8 33  1  0  0  0
  9 10  2  0  0  0
  9 24  1  0  0  0
 10 11  1  0  0  0
 10 23  1  0  0  0
 11 12  2  0  0  0
 11 34  1  0  0  0
 12 13  1  0  0  0
 13 14  1  0  0  0
 14 15  1  0  0  0
 14 22  1  0  0  0
 14 35  1  0  0  0
 15 16  1  0  0  0
 15 17  1  0  0  0
 15 36  1  0  0  0
 16 37  1  0  0  0
 17 18  1  0  0  0
 17 19  1  0  0  0
 17 38  1  0  0  0
 18 39  1  0  0  0
 19 20  1  0  0  0
 19 22  1  0  0  0
 19 40  1  0  0  0
 20 21  1  0  0  0
 20 41  1  0  0  0
 20 42  1  0  0  0
 21 43  1  0  0  0
M  END
> <s_m_entry_id>
15

> <s_m_entry_name>
Compounds-withfrags-for-validation-docking.1916

> <s_m_Source_Path>
/home/rodolpho/data/melina/maestro/glide-dock_XP_5RGK_M-PRO_VALIDATION

> <s_m_Source_File>
glide-dock_XP_5RGK_M-PRO_VALIDATION_pv.maegz

> <i_m_Source_File_Index>
15

> <CID>
Maribavir

> <pIC50>
4.30103

> <Source>
https://doi.org/10.1101/2020.03.23.004580

> <smiles>
C(C(C([H])([H])[H])(N(C1=NC2=C(C(=C(C([H])=C2N1C1(C(O[H])([H])C(O[H])([H])C(C(O[H])([H])[H])([H])O1)[H])Cl)Cl)[H])[H])[H])([H])([H])[H]

> <Outcome>
Inactive

> <StandardizerResult>
Clear Stereo (ID: ClearStereo)
Wedge Clean (ID: WedgeClean)
Mesomerize (ID: Mesomerize)
Tautomerize (ID: Tautomerize)
Aromatize (ID: Aromatize)
Add Explicit Hydrogens (ID: AddExplicitH)
Neutralize (ID: Neutralize)
Clean 2D (ID: Clean2D)

> <chiral flag>
0

> <version>
0

> <i_lp_mmshare_version>
41011

> <i_f3d_flags>
0

> <s_epik_input>
W2NIXTFjKENsKWMoQ2wpW2NIXWMoYzEyKW4oYyhuMilbTkhdW0NIXShbQ0gzXSlbQ0gzXSlbQ0BIXTNbQ0BASF0oW09IXSlbQ0BIXShbT0hdKVtDQEhdKE8zKVtDSDJdW09IXQ==

> <s_epik_cmdline>
J2VwaWtfcHl0aG9uJywgJy1waHQnLCAnMC41JywgJy1waCcsICc3LjQnLCAnLXRuJywgJzgnLCAnLW1hJywgJzIwMCcsICctaW1hZScsICc8aW5maWxlLm1hZT4nLCAnLW9tYWUnLCAnPG91dGZpbGUubWFlPic=

> <r_epik_Ionization_Penalty>
0.01

> <r_epik_Ionization_Penalty_Charging>
0.0

> <r_epik_Ionization_Penalty_Neutral>
0.01

> <r_epik_State_Penalty>
0.0076

> <r_epik_Charging_Adjusted_Penalty>
0.00760364

> <i_epik_Tot_Q>
0

> <i_epik_Tot_abs_Q>
0

> <s_lp_Force_Field>
OPLS3

> <r_lp_Energy>
15.8449

> <b_lp_Chiralities_Consistent>
1

> <s_lp_Variant>
ligprep_COVID_compounds-withfrags-smallmolecules-forvalidation.maegz:1-7

> <i_glide_original_lignum>
7

> <s_i_glide_gridfile>
glide-grid_5RGK_M-PRO_COVID

> <i_i_glide_lignum>
7

> <r_i_docking_score>
-6.92467908093198

> <r_i_glide_ligand_efficiency>
-0.288528295038832

> <r_i_glide_ligand_efficiency_sa>
-0.832259618200915

> <r_i_glide_ligand_efficiency_ln>
-1.657393456885

> <r_glide_XP_GScore>
-6.93228272093198

> <r_i_glide_gscore>
-6.93228272093198

> <r_i_glide_evdw>
-26.0505809783936

> <r_i_glide_ecoul>
-10.5353689193726

> <r_i_glide_energy>
-36.5859498977661

> <r_i_glide_einternal>
6.58611679077148

> <r_i_glide_emodel>
-32.4878540026954

> <r_glide_XP_HBond>
-1.88131040983728

> <i_i_glide_confnum>
1

> <i_i_glide_posenum>
2

> <r_i_glide_eff_state_penalty>
0.00760364

> <i_glide_XP_PoseRank>
1

> <s_epik_Chemistry_Notes>
This compound contains an acetal/aminal-like group ( X-CH(R)-Y where X, Y are N, S, or O) that may be acid/base labile, releasing an aldehyde.

> <Potency>
50.0

> <r_lp_tautomer_probability>


> <MW>


> <cLogP>


> <TPSA>


> <Rotatable Bonds>


> <Fraction sp3>


> <HBA>


> <HBD>


> <Structure ID>


> <Submission Fragments>


$$$$
ligprep_COVID_compounds-withfrags-smallmolecules-forvalidation.maegz:40
                    3D
 Structure written by MMmdl.
 79 83  0  0  1  0            999 V2000
    5.7014    0.4042   17.9270 C   0  0  0  0  0  0
    5.1496    1.0668   19.0568 O   0  0  0  0  0  0
    5.3548    0.5202   20.3099 C   0  0  0  0  0  0
    6.2269   -0.5588   20.5627 C   0  0  0  0  0  0
    6.3750   -1.0671   21.8653 C   0  0  0  0  0  0
    5.6422   -0.5637   22.9676 C   0  0  0  0  0  0
    5.7928   -1.1770   24.2904 N   0  0  0  0  0  0
    4.7129   -1.3637   25.1148 C   0  0  0  0  0  0
    3.6412   -0.7710   24.9708 O   0  0  0  0  0  0
    4.7903   -2.2813   26.2793 C   0  0  0  0  0  0
    5.1809   -3.5911   26.4047 C   0  0  0  0  0  0
    4.9414   -3.9636   27.7562 C   0  0  0  0  0  0
    4.3872   -2.8673   28.3559 C   0  0  0  0  0  0
    4.2755   -1.8416   27.4678 O   0  0  0  0  0  0
    7.1624   -1.4377   24.8412 C   0  0  2  0  0  0
    8.2138   -0.3516   24.4951 C   0  0  0  0  0  0
    9.3668   -0.6379   24.1708 O   0  0  0  0  0  0
    7.7703    0.9127   24.5570 N   0  0  0  0  0  0
    8.4166    2.1096   24.0451 C   0  0  0  0  0  0
    9.6801    2.4711   24.8405 C   0  0  0  0  0  0
   10.8991    2.6364   23.9608 C   0  0  0  0  0  0
   11.1748    3.8853   23.3680 C   0  0  0  0  0  0
   12.3264    4.0504   22.5766 C   0  0  0  0  0  0
   13.1972    2.9639   22.3806 C   0  0  0  0  0  0
   12.9235    1.7150   22.9701 C   0  0  0  0  0  0
   13.7606    0.6695   22.7753 F   0  0  0  0  0  0
   11.7789    1.5540   23.7661 C   0  0  0  0  0  0
    7.7247   -2.8209   24.5842 C   0  0  0  0  0  0
    8.7783   -3.3042   25.3961 C   0  0  0  0  0  0
    9.3211   -4.5840   25.1906 C   0  0  0  0  0  0
    8.7739   -5.3778   24.1711 C   0  0  0  0  0  0
    7.7419   -4.9752   23.4054 N   0  0  0  0  0  0
    7.2380   -3.7432   23.6225 C   0  0  0  0  0  0
    4.7889    0.5451   22.7065 C   0  0  0  0  0  0
    4.6540    1.0761   21.4016 C   0  0  0  0  0  0
    3.8848    2.2363   21.1679 N   0  0  0  0  0  0
    2.5494    2.3228   21.1619 C   0  0  0  0  0  0
    1.7978    1.4363   21.5664 O   0  0  0  0  0  0
    1.9740    3.6339   20.6090 C   0  0  0  0  0  0
    1.5416    3.4424   19.1421 C   0  0  0  0  0  0
    0.9670    4.7401   18.5514 C   0  0  0  0  0  0
   -0.2055    5.2625   19.3988 C   0  0  0  0  0  0
    0.2106    5.4494   20.8665 C   0  0  0  0  0  0
    0.7893    4.1506   21.4548 C   0  0  0  0  0  0
    5.4052    0.9220   17.0101 H   0  0  0  0  0  0
    5.3438   -0.6233   17.8524 H   0  0  0  0  0  0
    6.7916    0.4066   17.9643 H   0  0  0  0  0  0
    6.8123   -1.0106   19.7757 H   0  0  0  0  0  0
    7.0945   -1.8565   21.9792 H   0  0  0  0  0  0
    5.5718   -4.2238   25.6213 H   0  0  0  0  0  0
    5.1353   -4.9188   28.2223 H   0  0  0  0  0  0
    4.0325   -2.6559   29.3555 H   0  0  0  0  0  0
    7.1121   -1.3193   25.9262 H   0  0  0  0  0  0
    6.8494    1.0442   24.9537 H   0  0  0  0  0  0
    8.5902    2.0103   22.9728 H   0  0  0  0  0  0
    7.7001    2.9279   24.1272 H   0  0  0  0  0  0
    9.5148    3.4077   25.3720 H   0  0  0  0  0  0
    9.8917    1.7318   25.6140 H   0  0  0  0  0  0
   10.4990    4.7168   23.5121 H   0  0  0  0  0  0
   12.5350    5.0042   22.1160 H   0  0  0  0  0  0
   14.0814    3.0796   21.7726 H   0  0  0  0  0  0
   11.5817    0.5975   24.2263 H   0  0  0  0  0  0
    9.1758   -2.6825   26.1843 H   0  0  0  0  0  0
   10.1381   -4.9503   25.7979 H   0  0  0  0  0  0
    9.1676   -6.3637   23.9716 H   0  0  0  0  0  0
    6.3813   -3.5101   23.0144 H   0  0  0  0  0  0
    4.2432    1.0278   23.5024 H   0  0  0  0  0  0
    4.3787    3.0153   20.7373 H   0  0  0  0  0  0
    2.7631    4.3890   20.6379 H   0  0  0  0  0  0
    2.3952    3.1166   18.5434 H   0  0  0  0  0  0
    0.7952    2.6501   19.0765 H   0  0  0  0  0  0
    1.7521    5.4957   18.5046 H   0  0  0  0  0  0
    0.6409    4.5714   17.5260 H   0  0  0  0  0  0
   -0.5679    6.2064   18.9909 H   0  0  0  0  0  0
   -1.0374    4.5604   19.3417 H   0  0  0  0  0  0
    0.9545    6.2447   20.9378 H   0  0  0  0  0  0
   -0.6460    5.7725   21.4565 H   0  0  0  0  0  0
    0.0018    3.3978   21.5017 H   0  0  0  0  0  0
    1.1091    4.3268   22.4818 H   0  0  0  0  0  0
  1  2  1  0  0  0
  1 45  1  0  0  0
  1 46  1  0  0  0
  1 47  1  0  0  0
  2  3  1  0  0  0
  3  4  2  0  0  0
  3 35  1  0  0  0
  4  5  1  0  0  0
  4 48  1  0  0  0
  5  6  2  0  0  0
  5 49  1  0  0  0
  6  7  1  0  0  0
  6 34  1  0  0  0
  7  8  1  0  0  0
  7 15  1  0  0  0
  8  9  2  0  0  0
  8 10  1  0  0  0
 10 11  2  0  0  0
 10 14  1  0  0  0
 11 12  1  0  0  0
 11 50  1  0  0  0
 12 13  2  0  0  0
 12 51  1  0  0  0
 13 14  1  0  0  0
 13 52  1  0  0  0
 15 16  1  0  0  0
 15 28  1  0  0  0
 15 53  1  0  0  0
 16 17  2  0  0  0
 16 18  1  0  0  0
 18 19  1  0  0  0
 18 54  1  0  0  0
 19 20  1  0  0  0
 19 55  1  0  0  0
 19 56  1  0  0  0
 20 21  1  0  0  0
 20 57  1  0  0  0
 20 58  1  0  0  0
 21 22  2  0  0  0
 21 27  1  0  0  0
 22 23  1  0  0  0
 22 59  1  0  0  0
 23 24  2  0  0  0
 23 60  1  0  0  0
 24 25  1  0  0  0
 24 61  1  0  0  0
 25 26  1  0  0  0
 25 27  2  0  0  0
 27 62  1  0  0  0
 28 29  2  0  0  0
 28 33  1  0  0  0
 29 30  1  0  0  0
 29 63  1  0  0  0
 30 31  2  0  0  0
 30 64  1  0  0  0
 31 32  1  0  0  0
 31 65  1  0  0  0
 32 33  2  0  0  0
 33 66  1  0  0  0
 34 35  2  0  0  0
 34 67  1  0  0  0
 35 36  1  0  0  0
 36 37  1  0  0  0
 36 68  1  0  0  0
 37 38  2  0  0  0
 37 39  1  0  0  0
 39 40  1  0  0  0
 39 44  1  0  0  0
 39 69  1  0  0  0
 40 41  1  0  0  0
 40 70  1  0  0  0
 40 71  1  0  0  0
 41 42  1  0  0  0
 41 72  1  0  0  0
 41 73  1  0  0  0
 42 43  1  0  0  0
 42 74  1  0  0  0
 42 75  1  0  0  0
 43 44  1  0  0  0
 43 76  1  0  0  0
 43 77  1  0  0  0
 44 78  1  0  0  0
 44 79  1  0  0  0
M  END
> <s_m_entry_id>
27

> <s_m_entry_name>
Compounds-withfrags-for-validation-docking.1877

> <s_m_Source_Path>
/home/rodolpho/data/melina/maestro/glide-dock_XP_5RGK_M-PRO_VALIDATION

> <s_m_Source_File>
glide-dock_XP_5RGK_M-PRO_VALIDATION_pv.maegz

> <i_m_Source_File_Index>
27

> <CID>
ALP-POS-b0bc6a46-14

> <Potency>
62.7028

> <pIC50>
4.20271

> <Source>
Postera

> <smiles>
COc1ccc(N(C(=O)c2ccco2)C(C(=O)NCCc2cccc(F)c2)c2cccnc2)cc1NC(=O)C1CCCCC1

> <Outcome>
Inactive

> <StandardizerResult>
Clear Stereo (ID: ClearStereo)
Wedge Clean (ID: WedgeClean)
Mesomerize (ID: Mesomerize)
Tautomerize (ID: Tautomerize)
Aromatize (ID: Aromatize)
Add Explicit Hydrogens (ID: AddExplicitH)
Neutralize (ID: Neutralize)
Clean 2D (ID: Clean2D)

> <chiral flag>
0

> <version>
0

> <i_lp_mmshare_version>
41011

> <i_f3d_flags>
0

> <s_epik_input>
W0NIMl0xW0NIMl1bQ0gyXVtDSDJdW0NIMl1bQ0hdMUMoPU8pW05IXWMyW2NIXWMoW2NIXVtjSF1jMk9bQ0gzXSlOKEMoPU8pYzNbY0hdW2NIXVtjSF1vMylbQ0BASF0oYzRbY0hdW2NIXVtjSF1uW2NIXTQpQyg9TylbTkhdW0NIMl1bQ0gyXWM1W2NIXVtjSF1bY0hdYyhGKVtjSF01

> <s_epik_cmdline>
J2VwaWtfcHl0aG9uJywgJy1waHQnLCAnMC41JywgJy1waCcsICc3LjQnLCAnLXRuJywgJzgnLCAnLW1hJywgJzIwMCcsICctaW1hZScsICc8aW5maWxlLm1hZT4nLCAnLW9tYWUnLCAnPG91dGZpbGUubWFlPic=

> <r_lp_tautomer_probability>
1.0

> <r_epik_Ionization_Penalty>
6.0E-4

> <r_epik_Ionization_Penalty_Charging>
0.0

> <r_epik_Ionization_Penalty_Neutral>
6.0E-4

> <r_epik_State_Penalty>
0.0

> <r_epik_Charging_Adjusted_Penalty>
0.0

> <i_epik_Tot_Q>
0

> <i_epik_Tot_abs_Q>
0

> <s_lp_Force_Field>
OPLS3

> <r_lp_Energy>
86.3211

> <b_lp_Chiralities_Consistent>
1

> <s_lp_Variant>
ligprep_COVID_compounds-withfrags-smallmolecules-forvalidation.maegz:40-2

> <i_glide_original_lignum>
186

> <s_i_glide_gridfile>
glide-grid_5RGK_M-PRO_COVID

> <i_i_glide_lignum>
186

> <r_i_docking_score>
-6.62510002781316

> <r_i_glide_ligand_efficiency>
-0.150570455177572

> <r_i_glide_ligand_efficiency_sa>
-0.531566155114912

> <r_i_glide_ligand_efficiency_ln>
-1.38479043155887

> <r_glide_XP_GScore>
-6.62510002781316

> <r_i_glide_gscore>
-6.62510002781316

> <r_i_glide_evdw>
-44.5161018371582

> <r_i_glide_ecoul>
-15.112250328064

> <r_i_glide_energy>
-59.6283521652222

> <r_i_glide_einternal>
10.8788862228394

> <r_i_glide_emodel>
-86.2377297814376

> <r_glide_XP_HBond>
-1.58675574738408

> <i_i_glide_confnum>
3

> <i_i_glide_posenum>
29

> <r_i_glide_eff_state_penalty>
0.0

> <i_glide_XP_PoseRank>
1

> <MW>
598.26

> <cLogP>
6.09

> <TPSA>
113.77

> <Rotatable Bonds>
11

> <Fraction sp3>
0.29

> <HBA>
6

> <HBD>
2

> <s_epik_Chemistry_Notes>


> <Structure ID>


> <Submission Fragments>


$$$$
ligprep_COVID_compounds-withfrags-smallmolecules-forvalidation.maegz:7
                    3D
 Structure written by MMmdl.
 46 46  0  0  1  0            999 V2000
    5.7519   -1.9136   18.9202 C   0  0  0  0  0  0
    5.6021   -0.3801   18.8293 C   0  0  0  0  0  0
    5.9265    0.1551   17.4184 C   0  0  0  0  0  0
    6.4226    0.3247   19.9384 C   0  0  0  0  0  0
    5.6484    0.5680   21.2654 C   0  0  2  0  0  0
    4.2552    1.1957   20.9056 C   0  0  0  0  0  0
    3.5378    1.4337   21.9031 O   0  0  0  0  0  0
    4.0079    1.3516   19.6872 O   0  5  0  0  0  0
    6.4542    1.4103   22.1645 N   0  0  0  0  0  0
    6.0787    1.8686   23.3725 C   0  0  0  0  0  0
    4.9118    1.8350   23.7695 O   0  0  0  0  0  0
    7.2116    2.4210   24.2668 C   0  0  2  0  0  0
    8.2549    3.3049   23.5190 C   0  0  2  0  0  0
    9.4717    3.7310   24.3800 C   0  0  0  0  0  0
   10.8181    3.4315   23.7322 C   0  0  0  0  0  0
   11.3324    2.1324   23.7695 C   0  0  0  0  0  0
   12.5602    1.8537   23.1750 C   0  0  0  0  0  0
   13.2704    2.8747   22.5470 C   0  0  0  0  0  0
   12.7645    4.1724   22.5080 C   0  0  0  0  0  0
   11.5363    4.4519   23.1018 C   0  0  0  0  0  0
    7.5798    4.5754   22.9699 N   0  3  0  0  0  0
    7.8839    1.3397   24.8946 O   0  0  0  0  0  0
    6.2779   -2.3362   18.0640 H   0  0  0  0  0  0
    4.7750   -2.3951   18.9721 H   0  0  0  0  0  0
    6.3062   -2.2180   19.8087 H   0  0  0  0  0  0
    4.5485   -0.1698   19.0164 H   0  0  0  0  0  0
    6.8826    0.6784   17.3908 H   0  0  0  0  0  0
    5.1603    0.8574   17.0888 H   0  0  0  0  0  0
    5.9740   -0.6357   16.6698 H   0  0  0  0  0  0
    7.3124   -0.2744   20.1445 H   0  0  0  0  0  0
    6.7774    1.2730   19.5291 H   0  0  0  0  0  0
    5.4413   -0.3918   21.7431 H   0  0  0  0  0  0
    7.3848    1.6187   21.8335 H   0  0  0  0  0  0
    6.7780    3.0051   25.0807 H   0  0  0  0  0  0
    8.6037    2.7881   22.6224 H   0  0  0  0  0  0
    9.4210    4.7932   24.6256 H   0  0  0  0  0  0
    9.4381    3.2141   25.3406 H   0  0  0  0  0  0
   10.7822    1.3394   24.2557 H   0  0  0  0  0  0
   12.9604    0.8507   23.2010 H   0  0  0  0  0  0
   14.2236    2.6579   22.0872 H   0  0  0  0  0  0
   13.3232    4.9575   22.0200 H   0  0  0  0  0  0
   11.1468    5.4595   23.0716 H   0  0  0  0  0  0
    7.2110    5.1283   23.7307 H   0  0  0  0  0  0
    6.8166    4.3213   22.3589 H   0  0  0  0  0  0
    7.3518    1.0407   25.6369 H   0  0  0  0  0  0
    8.2463    5.1306   22.4529 H   0  0  0  0  0  0
  1  2  1  0  0  0
  1 23  1  0  0  0
  1 24  1  0  0  0
  1 25  1  0  0  0
  2  3  1  0  0  0
  2  4  1  0  0  0
  2 26  1  0  0  0
  3 27  1  0  0  0
  3 28  1  0  0  0
  3 29  1  0  0  0
  4  5  1  0  0  0
  4 30  1  0  0  0
  4 31  1  0  0  0
  5  6  1  0  0  0
  5  9  1  0  0  0
  5 32  1  0  0  0
  6  7  2  0  0  0
  6  8  1  0  0  0
  9 10  1  0  0  0
  9 33  1  0  0  0
 10 11  2  0  0  0
 10 12  1  0  0  0
 12 13  1  0  0  0
 12 22  1  0  0  0
 12 34  1  0  0  0
 13 14  1  0  0  0
 13 21  1  0  0  0
 13 35  1  0  0  0
 14 15  1  0  0  0
 14 36  1  0  0  0
 14 37  1  0  0  0
 15 16  2  0  0  0
 15 20  1  0  0  0
 16 17  1  0  0  0
 16 38  1  0  0  0
 17 18  2  0  0  0
 17 39  1  0  0  0
 18 19  1  0  0  0
 18 40  1  0  0  0
 19 20  2  0  0  0
 19 41  1  0  0  0
 20 42  1  0  0  0
 21 43  1  0  0  0
 21 44  1  0  0  0
 21 46  1  0  0  0
 22 45  1  0  0  0
M  CHG  2   8  -1  21   1
M  END
> <s_m_entry_id>
28

> <s_m_entry_name>
Compounds-withfrags-for-validation-docking.1910

> <s_m_Source_Path>
/home/rodolpho/data/melina/maestro/glide-dock_XP_5RGK_M-PRO_VALIDATION

> <s_m_Source_File>
glide-dock_XP_5RGK_M-PRO_VALIDATION_pv.maegz

> <i_m_Source_File_Index>
28

> <CID>
Ubenimex

> <Potency>
12.83

> <pIC50>
4.89177

> <Source>
https://doi.org/10.1101/2020.03.23.004580

> <smiles>
C(C(C([H])([H])[H])(C(C(C(=O)O[H])(N(C(=O)C(C(C(C1=C([H])C([H])=C([H])C([H])=C1[H])([H])[H])(N([H])[H])[H])(O[H])[H])[H])[H])([H])[H])[H])([H])([H])[H]

> <Outcome>
Inactive

> <StandardizerResult>
Clear Stereo (ID: ClearStereo)
Wedge Clean (ID: WedgeClean)
Mesomerize (ID: Mesomerize)
Tautomerize (ID: Tautomerize)
Aromatize (ID: Aromatize)
Add Explicit Hydrogens (ID: AddExplicitH)
Neutralize (ID: Neutralize)
Clean 2D (ID: Clean2D)

> <chiral flag>
0

> <version>
0

> <i_lp_mmshare_version>
41011

> <i_f3d_flags>
0

> <s_epik_input>
W0NIM11bQ0hdKFtDSDNdKVtDSDJdW0NASF0oQyg9TylbT0hdKVtOSF1DKD1PKVtDQEBIXShbT0hdKVtDQEBIXShbTkgyXSlbQ0gyXWMxW2NIXVtjSF1bY0hdW2NIXVtjSF0x

> <s_epik_cmdline>
J2VwaWtfcHl0aG9uJywgJy1waHQnLCAnMC41JywgJy1waCcsICc3LjQnLCAnLXRuJywgJzgnLCAnLW1hJywgJzIwMCcsICctaW1hZScsICc8aW5maWxlLm1hZT4nLCAnLW9tYWUnLCAnPG91dGZpbGUubWFlPic=

> <r_epik_Ionization_Penalty>
0.0844

> <r_epik_Ionization_Penalty_Charging>
0.0843

> <r_epik_Ionization_Penalty_Neutral>
1.0E-4

> <r_epik_State_Penalty>
0.0749

> <r_epik_Charging_Adjusted_Penalty>
0.15915

> <i_epik_Tot_Q>
0

> <i_epik_Tot_abs_Q>
2

> <s_lp_Force_Field>
OPLS3

> <r_lp_Energy>
21.6704

> <b_lp_Chiralities_Consistent>
1

> <s_lp_Variant>
ligprep_COVID_compounds-withfrags-smallmolecules-forvalidation.maegz:7-7

> <i_glide_original_lignum>
107

> <s_i_glide_gridfile>
glide-grid_5RGK_M-PRO_COVID

> <i_i_glide_lignum>
107

> <r_i_docking_score>
-6.6222439336019

> <r_i_glide_ligand_efficiency>
-0.301011087890996

> <r_i_glide_ligand_efficiency_sa>
-0.843444906364894

> <r_i_glide_ligand_efficiency_ln>
-1.61871796958884

> <r_glide_XP_GScore>
-6.6970998336019

> <r_i_glide_gscore>
-6.6970998336019

> <r_i_glide_evdw>
-19.9862022399902

> <r_i_glide_ecoul>
-17.8673896789551

> <r_i_glide_energy>
-37.8535919189453

> <r_i_glide_einternal>
6.72218561172485

> <r_i_glide_emodel>
-52.8151416737359

> <r_glide_XP_HBond>
-0.996319050766928

> <i_i_glide_confnum>
1

> <i_i_glide_posenum>
12

> <r_i_glide_eff_state_penalty>
0.0748559

> <i_glide_XP_PoseRank>
1

> <r_lp_tautomer_probability>


> <s_epik_Chemistry_Notes>


> <MW>


> <cLogP>


> <TPSA>


> <Rotatable Bonds>


> <Fraction sp3>


> <HBA>


> <HBD>


> <Structure ID>


> <Submission Fragments>


$$$$
ligprep_COVID_compounds-withfrags-smallmolecules-forvalidation.maegz:44
                    3D
 Structure written by MMmdl.
 58 61  0  0  1  0            999 V2000
    5.6847    2.7400   24.1704 O   0  0  0  0  0  0
    6.3291    2.2375   23.2478 C   0  0  0  0  0  0
    7.5759    2.6355   22.9600 N   0  0  0  0  0  0
    8.2064    3.8417   23.4895 C   0  0  0  0  0  0
    9.3682    3.5424   24.4485 C   0  0  0  0  0  0
   10.6331    3.0302   23.7702 C   0  0  0  0  0  0
   11.0736    1.7084   23.9900 C   0  0  0  0  0  0
   12.2676    1.2520   23.3989 C   0  0  0  0  0  0
   13.0401    2.1223   22.6070 C   0  0  0  0  0  0
   12.6152    3.4464   22.3949 C   0  0  0  0  0  0
   13.3645    4.2883   21.6449 F   0  0  0  0  0  0
   11.4119    3.8960   22.9707 C   0  0  0  0  0  0
    5.6963    1.1996   22.2887 C   0  0  2  0  0  0
    4.2050    1.4023   22.2603 C   0  0  0  0  0  0
    3.5758    1.8440   21.0729 C   0  0  0  0  0  0
    2.1873    2.0686   21.0444 C   0  0  0  0  0  0
    1.4552    1.8613   22.2242 C   0  0  0  0  0  0
    2.0188    1.4362   23.3709 N   0  0  0  0  0  0
    3.3507    1.2137   23.3738 C   0  0  0  0  0  0
    6.0712   -0.2326   22.4710 N   0  0  0  0  0  0
    5.9711   -0.7790   23.8482 C   0  0  0  0  0  0
    7.0650   -1.7044   24.2910 C   0  0  0  0  0  0
    6.9664   -3.0587   24.4882 C   0  0  0  0  0  0
    8.2148   -3.6873   24.7661 C   0  0  0  0  0  0
    8.3985   -5.1655   24.9397 C   0  0  0  0  0  0
    8.3707   -5.7761   23.7566 F   0  0  0  0  0  0
    9.5644   -5.4506   25.5196 F   0  0  0  0  0  0
    7.4316   -5.6850   25.6947 F   0  0  0  0  0  0
    9.2373   -2.7787   24.8091 C   0  0  0  0  0  0
    8.6877   -1.1444   24.5708 S   0  0  0  0  0  0
    6.3748   -1.0650   21.4271 C   0  0  0  0  0  0
    6.6860   -2.2463   21.5731 O   0  0  0  0  0  0
    6.2087   -0.6246   20.0284 C   0  0  0  0  0  0
    5.5752   -1.2780   19.0130 C   0  0  0  0  0  0
    5.5912   -0.4039   17.9042 C   0  0  0  0  0  0
    6.3793    0.6451   18.2603 C   0  0  0  0  0  0
    6.7991    0.5060   19.5449 O   0  0  0  0  0  0
    8.0584    2.1859   22.1886 H   0  0  0  0  0  0
    8.5520    4.4453   22.6496 H   0  0  0  0  0  0
    7.4711    4.4619   24.0050 H   0  0  0  0  0  0
    9.6198    4.4646   24.9723 H   0  0  0  0  0  0
    9.0453    2.8426   25.2208 H   0  0  0  0  0  0
   10.4989    1.0444   24.6172 H   0  0  0  0  0  0
   12.5987    0.2379   23.5626 H   0  0  0  0  0  0
   13.9667    1.7781   22.1722 H   0  0  0  0  0  0
   11.0931    4.9145   22.8035 H   0  0  0  0  0  0
    6.0761    1.5810   21.3517 H   0  0  0  0  0  0
    4.1585    2.0252   20.1808 H   0  0  0  0  0  0
    1.7069    2.4195   20.1433 H   0  0  0  0  0  0
    0.3899    2.0364   22.2463 H   0  0  0  0  0  0
    3.7496    0.8799   24.3191 H   0  0  0  0  0  0
    5.9285    0.0209   24.5707 H   0  0  0  0  0  0
    5.0137   -1.2869   23.9450 H   0  0  0  0  0  0
    6.0533   -3.6257   24.3759 H   0  0  0  0  0  0
   10.2830   -2.9899   24.9696 H   0  0  0  0  0  0
    5.0941   -2.2416   19.0758 H   0  0  0  0  0  0
    5.0914   -0.5620   16.9707 H   0  0  0  0  0  0
    6.7081    1.5410   17.7585 H   0  0  0  0  0  0
  1  2  2  0  0  0
  2  3  1  0  0  0
  2 13  1  0  0  0
  3  4  1  0  0  0
  3 38  1  0  0  0
  4  5  1  0  0  0
  4 39  1  0  0  0
  4 40  1  0  0  0
  5  6  1  0  0  0
  5 41  1  0  0  0
  5 42  1  0  0  0
  6  7  2  0  0  0
  6 12  1  0  0  0
  7  8  1  0  0  0
  7 43  1  0  0  0
  8  9  2  0  0  0
  8 44  1  0  0  0
  9 10  1  0  0  0
  9 45  1  0  0  0
 10 11  1  0  0  0
 10 12  2  0  0  0
 12 46  1  0  0  0
 13 14  1  0  0  0
 13 20  1  0  0  0
 13 47  1  0  0  0
 14 15  2  0  0  0
 14 19  1  0  0  0
 15 16  1  0  0  0
 15 48  1  0  0  0
 16 17  2  0  0  0
 16 49  1  0  0  0
 17 18  1  0  0  0
 17 50  1  0  0  0
 18 19  2  0  0  0
 19 51  1  0  0  0
 20 21  1  0  0  0
 20 31  1  0  0  0
 21 22  1  0  0  0
 21 52  1  0  0  0
 21 53  1  0  0  0
 22 23  2  0  0  0
 22 30  1  0  0  0
 23 24  1  0  0  0
 23 54  1  0  0  0
 24 25  1  0  0  0
 24 29  2  0  0  0
 25 26  1  0  0  0
 25 27  1  0  0  0
 25 28  1  0  0  0
 29 30  1  0  0  0
 29 55  1  0  0  0
 31 32  2  0  0  0
 31 33  1  0  0  0
 33 34  2  0  0  0
 33 37  1  0  0  0
 34 35  1  0  0  0
 34 56  1  0  0  0
 35 36  2  0  0  0
 35 57  1  0  0  0
 36 37  1  0  0  0
 36 58  1  0  0  0
M  END
> <s_m_entry_id>
30

> <s_m_entry_name>
Compounds-withfrags-for-validation-docking.1873

> <s_m_Source_Path>
/home/rodolpho/data/melina/maestro/glide-dock_XP_5RGK_M-PRO_VALIDATION

> <s_m_Source_File>
glide-dock_XP_5RGK_M-PRO_VALIDATION_pv.maegz

> <i_m_Source_File_Index>
30

> <CID>
ALP-POS-b0bc6a46-7

> <Potency>
99.5

> <pIC50>
4.00218

> <Source>
Postera

> <smiles>
O=C(NCCc1cccc(F)c1)C(c1cccnc1)N(Cc1cc(C(F)(F)F)cs1)C(=O)c1ccco1

> <Outcome>
Inactive

> <StandardizerResult>
Clear Stereo (ID: ClearStereo)
Wedge Clean (ID: WedgeClean)
Mesomerize (ID: Mesomerize)
Tautomerize (ID: Tautomerize)
Aromatize (ID: Aromatize)
Add Explicit Hydrogens (ID: AddExplicitH)
Neutralize (ID: Neutralize)
Clean 2D (ID: Clean2D)

> <chiral flag>
0

> <version>
0

> <i_lp_mmshare_version>
41011

> <i_f3d_flags>
0

> <s_epik_input>
RkMoRikoRiljKFtjSF1zMSlbY0hdYzFbQ0gyXU4oQyg9TyljMltjSF1bY0hdW2NIXW8yKVtDQEBIXShjM1tjSF1bY0hdW2NIXW5bY0hdMylDKD1PKVtOSF1bQ0gyXVtDSDJdYzRbY0hdW2NIXVtjSF1jKEYpW2NIXTQ=

> <s_epik_cmdline>
J2VwaWtfcHl0aG9uJywgJy1waHQnLCAnMC41JywgJy1waCcsICc3LjQnLCAnLXRuJywgJzgnLCAnLW1hJywgJzIwMCcsICctaW1hZScsICc8aW5maWxlLm1hZT4nLCAnLW9tYWUnLCAnPG91dGZpbGUubWFlPic=

> <r_lp_tautomer_probability>
1.0

> <r_epik_Ionization_Penalty>
7.0E-4

> <r_epik_Ionization_Penalty_Charging>
0.0

> <r_epik_Ionization_Penalty_Neutral>
7.0E-4

> <r_epik_State_Penalty>
0.0

> <r_epik_Charging_Adjusted_Penalty>
0.0

> <i_epik_Tot_Q>
0

> <i_epik_Tot_abs_Q>
0

> <s_lp_Force_Field>
OPLS3

> <r_lp_Energy>
50.3553

> <b_lp_Chiralities_Consistent>
1

> <s_lp_Variant>
ligprep_COVID_compounds-withfrags-smallmolecules-forvalidation.maegz:44-2

> <i_glide_original_lignum>
194

> <s_i_glide_gridfile>
glide-grid_5RGK_M-PRO_COVID

> <i_i_glide_lignum>
194

> <r_i_docking_score>
-6.5832458194525

> <r_i_glide_ligand_efficiency>
-0.177925562687905

> <r_i_glide_ligand_efficiency_sa>
-0.592887447241418

> <r_i_glide_ligand_efficiency_ln>
-1.4277516850603

> <r_glide_XP_GScore>
-6.5832458194525

> <r_i_glide_gscore>
-6.5832458194525

> <r_i_glide_evdw>
-45.2341194152832

> <r_i_glide_ecoul>
-6.6707592010498

> <r_i_glide_energy>
-51.904878616333

> <r_i_glide_einternal>
6.53268384933472

> <r_i_glide_emodel>
-72.2414624779652

> <r_glide_XP_HBond>
-0.487537166194005

> <i_i_glide_confnum>
1

> <i_i_glide_posenum>
1

> <r_i_glide_eff_state_penalty>
0.0

> <i_glide_XP_PoseRank>
1

> <MW>
531.12

> <cLogP>
5.64

> <TPSA>
75.44

> <Rotatable Bonds>
9

> <Fraction sp3>
0.19

> <HBA>
5

> <HBD>
1

> <s_epik_Chemistry_Notes>


> <Structure ID>


> <Submission Fragments>


$$$$
ligprep_COVID_compounds-withfrags-smallmolecules-forvalidation.maegz:1
                    3D
 Structure written by MMmdl.
 43 45  0  0  1  0            999 V2000
   10.2155    0.4681   25.4442 C   0  0  0  0  0  0
    8.9586    0.1482   26.2768 C   0  0  0  0  0  0
    9.2495   -0.5948   27.5801 C   0  0  0  0  0  0
    8.0738   -0.6922   25.5123 N   0  0  0  0  0  0
    7.4344   -0.5225   24.3060 C   0  0  0  0  0  0
    7.1387    0.6583   23.7701 N   0  0  0  0  0  0
    6.6471    0.2899   22.5357 C   0  0  0  0  0  0
    6.1572    1.0730   21.4670 C   0  0  0  0  0  0
    5.7989    0.4694   20.2440 C   0  0  0  0  0  0
    5.9498   -0.9218   20.0784 C   0  0  0  0  0  0
    6.3749   -1.7231   21.1520 C   0  0  0  0  0  0
    6.7064   -1.1248   22.3750 C   0  0  0  0  0  0
    7.1802   -1.6250   23.5753 N   0  0  0  0  0  0
    7.4849   -3.0724   23.8759 C   0  0  1  0  0  0
    8.9431   -3.4617   23.5457 C   0  0  1  0  0  0
    9.8891   -2.4300   23.7708 O   0  0  0  0  0  0
    9.1867   -4.6091   24.5087 C   0  0  2  0  0  0
    8.7749   -5.8074   23.8939 O   0  0  0  0  0  0
    8.3328   -4.1890   25.7175 C   0  0  2  0  0  0
    7.8922   -5.2397   26.7616 C   0  0  0  0  0  0
    6.9485   -6.1637   26.2611 O   0  0  0  0  0  0
    7.2843   -3.3421   25.2373 O   0  0  0  0  0  0
    5.5750   -1.6581   18.5711 Cl  0  0  0  0  0  0
    5.1752    1.4274   18.9481 Cl  0  0  0  0  0  0
   10.7749    1.3062   25.8446 H   0  0  0  0  0  0
    9.9497    0.7618   24.4281 H   0  0  0  0  0  0
   10.8873   -0.3860   25.3686 H   0  0  0  0  0  0
    8.4290    1.0774   26.4931 H   0  0  0  0  0  0
   10.0142   -0.1642   28.2105 H   0  0  0  0  0  0
    9.5749   -1.6108   27.3694 H   0  0  0  0  0  0
    8.3387   -0.6587   28.1702 H   0  0  0  0  0  0
    7.9598   -1.6319   25.8702 H   0  0  0  0  0  0
    6.0866    2.1444   21.5836 H   0  0  0  0  0  0
    6.4818   -2.7847   21.0380 H   0  0  0  0  0  0
    6.7564   -3.6452   23.2993 H   0  0  0  0  0  0
    9.0076   -3.7623   22.5025 H   0  0  0  0  0  0
    9.6420   -1.9779   24.5678 H   0  0  0  0  0  0
   10.2388   -4.7207   24.7775 H   0  0  0  0  0  0
    9.4801   -6.0950   23.3282 H   0  0  0  0  0  0
    8.9733   -3.5064   26.2746 H   0  0  0  0  0  0
    8.7660   -5.7928   27.1086 H   0  0  0  0  0  0
    7.4648   -4.7484   27.6357 H   0  0  0  0  0  0
    7.1750   -7.0444   26.5707 H   0  0  0  0  0  0
  1  2  1  0  0  0
  1 25  1  0  0  0
  1 26  1  0  0  0
  1 27  1  0  0  0
  2  3  1  0  0  0
  2  4  1  0  0  0
  2 28  1  0  0  0
  3 29  1  0  0  0
  3 30  1  0  0  0
  3 31  1  0  0  0
  4  5  1  0  0  0
  4 32  1  0  0  0
  5  6  2  0  0  0
  5 13  1  0  0  0
  6  7  1  0  0  0
  7  8  2  0  0  0
  7 12  1  0  0  0
  8  9  1  0  0  0
  8 33  1  0  0  0
  9 10  2  0  0  0
  9 24  1  0  0  0
 10 11  1  0  0  0
 10 23  1  0  0  0
 11 12  2  0  0  0
 11 34  1  0  0  0
 12 13  1  0  0  0
 13 14  1  0  0  0
 14 15  1  0  0  0
 14 22  1  0  0  0
 14 35  1  0  0  0
 15 16  1  0  0  0
 15 17  1  0  0  0
 15 36  1  0  0  0
 16 37  1  0  0  0
 17 18  1  0  0  0
 17 19  1  0  0  0
 17 38  1  0  0  0
 18 39  1  0  0  0
 19 20  1  0  0  0
 19 22  1  0  0  0
 19 40  1  0  0  0
 20 21  1  0  0  0
 20 41  1  0  0  0
 20 42  1  0  0  0
 21 43  1  0  0  0
M  END
> <s_m_entry_id>
33

> <s_m_entry_name>
Compounds-withfrags-for-validation-docking.1916

> <s_m_Source_Path>
/home/rodolpho/data/melina/maestro/glide-dock_XP_5RGK_M-PRO_VALIDATION

> <s_m_Source_File>
glide-dock_XP_5RGK_M-PRO_VALIDATION_pv.maegz

> <i_m_Source_File_Index>
33

> <CID>
Maribavir

> <pIC50>
4.30103

> <Source>
https://doi.org/10.1101/2020.03.23.004580

> <smiles>
C(C(C([H])([H])[H])(N(C1=NC2=C(C(=C(C([H])=C2N1C1(C(O[H])([H])C(O[H])([H])C(C(O[H])([H])[H])([H])O1)[H])Cl)Cl)[H])[H])[H])([H])([H])[H]

> <Outcome>
Inactive

> <StandardizerResult>
Clear Stereo (ID: ClearStereo)
Wedge Clean (ID: WedgeClean)
Mesomerize (ID: Mesomerize)
Tautomerize (ID: Tautomerize)
Aromatize (ID: Aromatize)
Add Explicit Hydrogens (ID: AddExplicitH)
Neutralize (ID: Neutralize)
Clean 2D (ID: Clean2D)

> <chiral flag>
0

> <version>
0

> <i_lp_mmshare_version>
41011

> <i_f3d_flags>
0

> <s_epik_input>
W2NIXTFjKENsKWMoQ2wpW2NIXWMoYzEyKW4oYyhuMilbTkhdW0NIXShbQ0gzXSlbQ0gzXSlbQ0BIXTNbQ0BASF0oW09IXSlbQ0BIXShbT0hdKVtDQEBIXShPMylbQ0gyXVtPSF0=

> <s_epik_cmdline>
J2VwaWtfcHl0aG9uJywgJy1waHQnLCAnMC41JywgJy1waCcsICc3LjQnLCAnLXRuJywgJzgnLCAnLW1hJywgJzIwMCcsICctaW1hZScsICc8aW5maWxlLm1hZT4nLCAnLW9tYWUnLCAnPG91dGZpbGUubWFlPic=

> <r_epik_Ionization_Penalty>
0.01

> <r_epik_Ionization_Penalty_Charging>
0.0

> <r_epik_Ionization_Penalty_Neutral>
0.01

> <r_epik_State_Penalty>
0.0076

> <r_epik_Charging_Adjusted_Penalty>
0.00760364

> <i_epik_Tot_Q>
0

> <i_epik_Tot_abs_Q>
0

> <s_lp_Force_Field>
OPLS3

> <r_lp_Energy>
15.8144

> <b_lp_Chiralities_Consistent>
1

> <s_lp_Variant>
ligprep_COVID_compounds-withfrags-smallmolecules-forvalidation.maegz:1-15

> <i_glide_original_lignum>
15

> <s_i_glide_gridfile>
glide-grid_5RGK_M-PRO_COVID

> <i_i_glide_lignum>
15

> <r_i_docking_score>
-6.54743579701264

> <r_i_glide_ligand_efficiency>
-0.272809824875527

> <r_i_glide_ligand_efficiency_sa>
-0.786919704571111

> <r_i_glide_ligand_efficiency_ln>
-1.56710182847677

> <r_glide_XP_GScore>
-6.55503943701264

> <r_i_glide_gscore>
-6.55503943701264

> <r_i_glide_evdw>
-22.9844913482666

> <r_i_glide_ecoul>
-14.7915439605713

> <r_i_glide_energy>
-37.7760353088379

> <r_i_glide_einternal>
17.2075500488281

> <r_i_glide_emodel>
-36.3488071497115

> <r_glide_XP_HBond>
-1.95385722115459

> <i_i_glide_confnum>
1

> <i_i_glide_posenum>
29

> <r_i_glide_eff_state_penalty>
0.00760364

> <i_glide_XP_PoseRank>
1

> <s_epik_Chemistry_Notes>
This compound contains an acetal/aminal-like group ( X-CH(R)-Y where X, Y are N, S, or O) that may be acid/base labile, releasing an aldehyde.

> <Potency>
50.0

> <r_lp_tautomer_probability>


> <MW>


> <cLogP>


> <TPSA>


> <Rotatable Bonds>


> <Fraction sp3>


> <HBA>


> <HBD>


> <Structure ID>


> <Submission Fragments>


$$$$
ligprep_COVID_compounds-withfrags-smallmolecules-forvalidation.maegz:53
                    3D
 Structure written by MMmdl.
 52 54  0  0  1  0            999 V2000
    5.7742    1.0223   19.4237 C   0  0  0  0  0  0
    5.7422    0.7417   20.8775 N   0  3  0  0  0  0
    4.4246    1.0786   21.4610 C   0  0  0  0  0  0
    6.2089   -0.6404   21.1795 C   0  0  0  0  0  0
    6.4342   -0.9385   22.6776 C   0  0  0  0  0  0
    7.3865    0.0643   23.3627 C   0  0  0  0  0  0
    7.9645   -0.3143   24.6690 N   0  0  0  0  0  0
    7.4089   -1.4622   25.4174 C   0  0  0  0  0  0
    8.2659   -2.6996   25.4404 C   0  0  0  0  0  0
    8.2647   -3.6657   26.4161 C   0  0  0  0  0  0
    9.1801   -4.7295   26.1667 C   0  0  0  0  0  0
    9.8715   -4.5673   24.9973 C   0  0  0  0  0  0
    9.4004   -3.1064   24.1715 S   0  0  0  0  0  0
    8.9691    0.4126   25.2246 C   0  0  0  0  0  0
    9.5925    0.0206   26.2100 O   0  0  0  0  0  0
    9.3691    1.7878   24.6440 C   0  0  0  0  0  0
   10.7187    1.8179   23.9131 C   0  0  0  0  0  0
   11.4261    0.6358   23.6029 C   0  0  0  0  0  0
   12.6081    0.6113   22.9645 N   0  0  0  0  0  0
   13.1749    1.7767   22.6295 C   0  0  0  0  0  0
   12.5738    3.0154   22.8854 C   0  0  0  0  0  0
   13.2357    4.2017   22.5319 C   0  0  0  0  0  0
   12.6542    5.4365   22.8484 C   0  0  0  0  0  0
   11.3837    5.4810   23.4549 C   0  0  0  0  0  0
   10.7019    4.2930   23.7705 C   0  0  0  0  0  0
   11.3117    3.0443   23.5248 C   0  0  0  0  0  0
    5.1312    0.3333   18.8735 H   0  0  0  0  0  0
    6.7872    0.9238   19.0348 H   0  0  0  0  0  0
    5.4387    2.0385   19.2122 H   0  0  0  0  0  0
    3.6393    0.4421   21.0533 H   0  0  0  0  0  0
    4.1680    2.1159   21.2399 H   0  0  0  0  0  0
    4.4253    0.9743   22.5448 H   0  0  0  0  0  0
    5.5067   -1.3649   20.7701 H   0  0  0  0  0  0
    7.1448   -0.8120   20.6485 H   0  0  0  0  0  0
    5.4769   -0.9674   23.1988 H   0  0  0  0  0  0
    6.8471   -1.9467   22.7476 H   0  0  0  0  0  0
    8.2139    0.2418   22.6802 H   0  0  0  0  0  0
    6.8554    1.0097   23.4796 H   0  0  0  0  0  0
    7.2396   -1.1390   26.4463 H   0  0  0  0  0  0
    6.4100   -1.7285   25.0792 H   0  0  0  0  0  0
    7.6429   -3.6465   27.2987 H   0  0  0  0  0  0
    9.2968   -5.5660   26.8421 H   0  0  0  0  0  0
   10.6197   -5.2230   24.5710 H   0  0  0  0  0  0
    8.6044    2.2193   24.0021 H   0  0  0  0  0  0
    9.4371    2.4621   25.4987 H   0  0  0  0  0  0
   11.0390   -0.3412   23.8452 H   0  0  0  0  0  0
   14.1497    1.7151   22.1708 H   0  0  0  0  0  0
   14.1935    4.1603   22.0379 H   0  0  0  0  0  0
   13.1794    6.3507   22.6108 H   0  0  0  0  0  0
   10.9264    6.4329   23.6816 H   0  0  0  0  0  0
    9.7302    4.3638   24.2335 H   0  0  0  0  0  0
    6.4105    1.3760   21.2948 H   0  0  0  0  0  0
  1  2  1  0  0  0
  1 27  1  0  0  0
  1 28  1  0  0  0
  1 29  1  0  0  0
  2  3  1  0  0  0
  2  4  1  0  0  0
  2 52  1  0  0  0
  3 30  1  0  0  0
  3 31  1  0  0  0
  3 32  1  0  0  0
  4  5  1  0  0  0
  4 33  1  0  0  0
  4 34  1  0  0  0
  5  6  1  0  0  0
  5 35  1  0  0  0
  5 36  1  0  0  0
  6  7  1  0  0  0
  6 37  1  0  0  0
  6 38  1  0  0  0
  7  8  1  0  0  0
  7 14  1  0  0  0
  8  9  1  0  0  0
  8 39  1  0  0  0
  8 40  1  0  0  0
  9 10  2  0  0  0
  9 13  1  0  0  0
 10 11  1  0  0  0
 10 41  1  0  0  0
 11 12  2  0  0  0
 11 42  1  0  0  0
 12 13  1  0  0  0
 12 43  1  0  0  0
 14 15  2  0  0  0
 14 16  1  0  0  0
 16 17  1  0  0  0
 16 44  1  0  0  0
 16 45  1  0  0  0
 17 18  2  0  0  0
 17 26  1  0  0  0
 18 19  1  0  0  0
 18 46  1  0  0  0
 19 20  2  0  0  0
 20 21  1  0  0  0
 20 47  1  0  0  0
 21 22  2  0  0  0
 21 26  1  0  0  0
 22 23  1  0  0  0
 22 48  1  0  0  0
 23 24  2  0  0  0
 23 49  1  0  0  0
 24 25  1  0  0  0
 24 50  1  0  0  0
 25 26  2  0  0  0
 25 51  1  0  0  0
M  CHG  1   2   1
M  END
> <s_m_entry_id>
34

> <s_m_entry_name>
Compounds-withfrags-for-validation-docking.1864

> <s_m_Source_Path>
/home/rodolpho/data/melina/maestro/glide-dock_XP_5RGK_M-PRO_VALIDATION

> <s_m_Source_File>
glide-dock_XP_5RGK_M-PRO_VALIDATION_pv.maegz

> <i_m_Source_File_Index>
34

> <CID>
ALP-POS-64a710fa-2

> <Potency>
99.5

> <pIC50>
4.00218

> <Source>
Postera

> <smiles>
CN(C)CCCN(Cc1cccs1)C(=O)Cc1cncc2ccccc12

> <Outcome>
Inactive

> <StandardizerResult>
Clear Stereo (ID: ClearStereo)
Wedge Clean (ID: WedgeClean)
Mesomerize (ID: Mesomerize)
Tautomerize (ID: Tautomerize)
Aromatize (ID: Aromatize)
Add Explicit Hydrogens (ID: AddExplicitH)
Neutralize (ID: Neutralize)
Clean 2D (ID: Clean2D)

> <chiral flag>
0

> <version>
0

> <i_lp_mmshare_version>
41011

> <i_f3d_flags>
0

> <s_epik_input>
czFbY0hdW2NIXVtjSF1jMVtDSDJdTihbQ0gyXVtDSDJdW0NIMl1OKFtDSDNdKVtDSDNdKUMoPU8pW0NIMl1jKFtjSF1uW2NIXTIpYyhjMjMpW2NIXVtjSF1bY0hdW2NIXTM=

> <s_epik_cmdline>
J2VwaWtfcHl0aG9uJywgJy1waHQnLCAnMC41JywgJy1waCcsICc3LjQnLCAnLXRuJywgJzgnLCAnLW1hJywgJzIwMCcsICctaW1hZScsICc8aW5maWxlLm1hZT4nLCAnLW9tYWUnLCAnPG91dGZpbGUubWFlPic=

> <r_lp_tautomer_probability>
1.0

> <r_epik_Ionization_Penalty>
0.0102

> <r_epik_Ionization_Penalty_Charging>
0.0026

> <r_epik_Ionization_Penalty_Neutral>
0.0076

> <r_epik_State_Penalty>
0.0

> <r_epik_Charging_Adjusted_Penalty>
0.00259131

> <i_epik_Tot_Q>
1

> <i_epik_Tot_abs_Q>
1

> <s_lp_Force_Field>
OPLS3

> <r_lp_Energy>
49.1553

> <b_lp_Chiralities_Consistent>
1

> <s_lp_Variant>
ligprep_COVID_compounds-withfrags-smallmolecules-forvalidation.maegz:53-1

> <i_glide_original_lignum>
219

> <s_i_glide_gridfile>
glide-grid_5RGK_M-PRO_COVID

> <i_i_glide_lignum>
219

> <r_i_docking_score>
-6.50780446897574

> <r_i_glide_ligand_efficiency>
-0.250300171883682

> <r_i_glide_ligand_efficiency_sa>
-0.741513274321791

> <r_i_glide_ligand_efficiency_ln>
-1.52833652569079

> <r_glide_XP_GScore>
-6.50780446897574

> <r_i_glide_gscore>
-6.50780446897574

> <r_i_glide_evdw>
-42.1830101013184

> <r_i_glide_ecoul>
-9.57912826538086

> <r_i_glide_energy>
-51.7621383666992

> <r_i_glide_einternal>
9.73888683319092

> <r_i_glide_emodel>
-63.3968840026531

> <r_glide_XP_HBond>
-0.130171177695132

> <i_i_glide_confnum>
1

> <i_i_glide_posenum>
53

> <r_i_glide_eff_state_penalty>
0.0

> <i_glide_XP_PoseRank>
1

> <MW>
367.17

> <cLogP>
3.82

> <TPSA>
36.44

> <Rotatable Bonds>
8

> <Fraction sp3>
0.33

> <HBA>
4

> <HBD>
0

> <s_epik_Chemistry_Notes>


> <Structure ID>


> <Submission Fragments>


$$$$
ligprep_COVID_compounds-withfrags-smallmolecules-forvalidation.maegz:7
                    3D
 Structure written by MMmdl.
 46 46  0  0  1  0            999 V2000
    2.1073    1.6012   21.0507 C   0  0  0  0  0  0
    3.4969    1.7699   20.4169 C   0  0  0  0  0  0
    3.3884    2.2363   18.9640 C   0  0  0  0  0  0
    4.3348    0.4801   20.4557 C   0  0  0  0  0  0
    5.8399    0.7401   20.2326 C   0  0  2  0  0  0
    6.4115   -0.0032   19.0108 C   0  0  0  0  0  0
    6.1364   -1.2161   18.9108 O   0  0  0  0  0  0
    7.1295    0.6362   18.2061 O   0  5  0  0  0  0
    6.6305    0.4204   21.4173 N   0  0  0  0  0  0
    6.4614    0.9615   22.6338 C   0  0  0  0  0  0
    5.4042    1.4363   23.0497 O   0  0  0  0  0  0
    7.7152    1.1015   23.4954 C   0  0  1  0  0  0
    7.9721    2.6078   23.8054 C   0  0  1  0  0  0
    9.2438    2.8666   24.6424 C   0  0  0  0  0  0
   10.5564    2.6361   23.9109 C   0  0  0  0  0  0
   11.1905    1.3777   23.9640 C   0  0  0  0  0  0
   12.4315    1.1905   23.3255 C   0  0  0  0  0  0
   13.0413    2.2539   22.6357 C   0  0  0  0  0  0
   12.4088    3.5076   22.5709 C   0  0  0  0  0  0
   11.1740    3.7000   23.2175 C   0  0  0  0  0  0
    7.9749    3.4363   22.5710 N   0  3  0  0  0  0
    7.5776    0.3249   24.6676 O   0  0  0  0  0  0
    1.4303    1.0364   20.4152 H   0  0  0  0  0  0
    1.6458    2.5758   21.2146 H   0  0  0  0  0  0
    2.1692    1.1001   22.0172 H   0  0  0  0  0  0
    4.0042    2.5446   20.9940 H   0  0  0  0  0  0
    3.1756    1.4083   18.3078 H   0  0  0  0  0  0
    4.3220    2.6358   18.5712 H   0  0  0  0  0  0
    2.6286    3.0065   18.8328 H   0  0  0  0  0  0
    4.1600   -0.0779   21.3756 H   0  0  0  0  0  0
    3.9750   -0.1644   19.6676 H   0  0  0  0  0  0
    5.9759    1.8044   20.0416 H   0  0  0  0  0  0
    7.5021   -0.0541   21.2197 H   0  0  0  0  0  0
    8.5633    0.6690   22.9709 H   0  0  0  0  0  0
    7.1359    2.9705   24.4056 H   0  0  0  0  0  0
    9.2311    3.8968   25.0013 H   0  0  0  0  0  0
    9.2280    2.2530   25.5441 H   0  0  0  0  0  0
   10.7340    0.5588   24.5020 H   0  0  0  0  0  0
   12.9302    0.2363   23.3700 H   0  0  0  0  0  0
   14.0047    2.1088   22.1707 H   0  0  0  0  0  0
   12.8767    4.3239   22.0397 H   0  0  0  0  0  0
   10.7064    4.6730   23.1764 H   0  0  0  0  0  0
    8.5210    2.9603   21.8585 H   0  0  0  0  0  0
    8.3670    4.3474   22.7491 H   0  0  0  0  0  0
    6.8343    0.6361   25.1804 H   0  0  0  0  0  0
    7.0274    3.5775   22.2104 H   0  0  0  0  0  0
  1  2  1  0  0  0
  1 23  1  0  0  0
  1 24  1  0  0  0
  1 25  1  0  0  0
  2  3  1  0  0  0
  2  4  1  0  0  0
  2 26  1  0  0  0
  3 27  1  0  0  0
  3 28  1  0  0  0
  3 29  1  0  0  0
  4  5  1  0  0  0
  4 30  1  0  0  0
  4 31  1  0  0  0
  5  6  1  0  0  0
  5  9  1  0  0  0
  5 32  1  0  0  0
  6  7  2  0  0  0
  6  8  1  0  0  0
  9 10  1  0  0  0
  9 33  1  0  0  0
 10 11  2  0  0  0
 10 12  1  0  0  0
 12 13  1  0  0  0
 12 22  1  0  0  0
 12 34  1  0  0  0
 13 14  1  0  0  0
 13 21  1  0  0  0
 13 35  1  0  0  0
 14 15  1  0  0  0
 14 36  1  0  0  0
 14 37  1  0  0  0
 15 16  2  0  0  0
 15 20  1  0  0  0
 16 17  1  0  0  0
 16 38  1  0  0  0
 17 18  2  0  0  0
 17 39  1  0  0  0
 18 19  1  0  0  0
 18 40  1  0  0  0
 19 20  2  0  0  0
 19 41  1  0  0  0
 20 42  1  0  0  0
 21 43  1  0  0  0
 21 44  1  0  0  0
 21 46  1  0  0  0
 22 45  1  0  0  0
M  CHG  2   8  -1  21   1
M  END
> <s_m_entry_id>
36

> <s_m_entry_name>
Compounds-withfrags-for-validation-docking.1910

> <s_m_Source_Path>
/home/rodolpho/data/melina/maestro/glide-dock_XP_5RGK_M-PRO_VALIDATION

> <s_m_Source_File>
glide-dock_XP_5RGK_M-PRO_VALIDATION_pv.maegz

> <i_m_Source_File_Index>
36

> <CID>
Ubenimex

> <Potency>
12.83

> <pIC50>
4.89177

> <Source>
https://doi.org/10.1101/2020.03.23.004580

> <smiles>
C(C(C([H])([H])[H])(C(C(C(=O)O[H])(N(C(=O)C(C(C(C1=C([H])C([H])=C([H])C([H])=C1[H])([H])[H])(N([H])[H])[H])(O[H])[H])[H])[H])([H])[H])[H])([H])([H])[H]

> <Outcome>
Inactive

> <StandardizerResult>
Clear Stereo (ID: ClearStereo)
Wedge Clean (ID: WedgeClean)
Mesomerize (ID: Mesomerize)
Tautomerize (ID: Tautomerize)
Aromatize (ID: Aromatize)
Add Explicit Hydrogens (ID: AddExplicitH)
Neutralize (ID: Neutralize)
Clean 2D (ID: Clean2D)

> <chiral flag>
0

> <version>
0

> <i_lp_mmshare_version>
41011

> <i_f3d_flags>
0

> <s_epik_input>
W0NIM11bQ0hdKFtDSDNdKVtDSDJdW0NASF0oQyg9TylbT0hdKVtOSF1DKD1PKVtDQEhdKFtPSF0pW0NASF0oW05IMl0pW0NIMl1jMVtjSF1bY0hdW2NIXVtjSF1bY0hdMQ==

> <s_epik_cmdline>
J2VwaWtfcHl0aG9uJywgJy1waHQnLCAnMC41JywgJy1waCcsICc3LjQnLCAnLXRuJywgJzgnLCAnLW1hJywgJzIwMCcsICctaW1hZScsICc8aW5maWxlLm1hZT4nLCAnLW9tYWUnLCAnPG91dGZpbGUubWFlPic=

> <r_epik_Ionization_Penalty>
0.0844

> <r_epik_Ionization_Penalty_Charging>
0.0843

> <r_epik_Ionization_Penalty_Neutral>
1.0E-4

> <r_epik_State_Penalty>
0.0749

> <r_epik_Charging_Adjusted_Penalty>
0.15915

> <i_epik_Tot_Q>
0

> <i_epik_Tot_abs_Q>
2

> <s_lp_Force_Field>
OPLS3

> <r_lp_Energy>
23.302

> <b_lp_Chiralities_Consistent>
1

> <s_lp_Variant>
ligprep_COVID_compounds-withfrags-smallmolecules-forvalidation.maegz:7-1

> <i_glide_original_lignum>
101

> <s_i_glide_gridfile>
glide-grid_5RGK_M-PRO_COVID

> <i_i_glide_lignum>
101

> <r_i_docking_score>
-6.45600412455708

> <r_i_glide_ligand_efficiency>
-0.293454732934413

> <r_i_glide_ligand_efficiency_sa>
-0.822271702601972

> <r_i_glide_ligand_efficiency_ln>
-1.57808289651391

> <r_glide_XP_GScore>
-6.53086002455708

> <r_i_glide_gscore>
-6.53086002455708

> <r_i_glide_evdw>
-23.639368057251

> <r_i_glide_ecoul>
-19.9189968109131

> <r_i_glide_energy>
-43.5583648681641

> <r_i_glide_einternal>
15.1920824050903

> <r_i_glide_emodel>
-45.2232653387351

> <r_glide_XP_HBond>
-2.1259714371878

> <i_i_glide_confnum>
1

> <i_i_glide_posenum>
2

> <r_i_glide_eff_state_penalty>
0.0748559

> <i_glide_XP_PoseRank>
1

> <r_lp_tautomer_probability>


> <s_epik_Chemistry_Notes>


> <MW>


> <cLogP>


> <TPSA>


> <Rotatable Bonds>


> <Fraction sp3>


> <HBA>


> <HBD>


> <Structure ID>


> <Submission Fragments>


$$$$
ligprep_COVID_compounds-withfrags-smallmolecules-forvalidation.maegz:7
                    3D
 Structure written by MMmdl.
 46 46  0  0  1  0            999 V2000
    5.2749    0.9640   18.7325 C   0  0  0  0  0  0
    5.7283    0.0679   19.8990 C   0  0  0  0  0  0
    5.9760   -1.3620   19.3982 C   0  0  0  0  0  0
    4.7424    0.0962   21.0976 C   0  0  0  0  0  0
    4.6980    1.4404   21.8637 C   0  0  1  0  0  0
    3.6170    1.5669   22.9639 C   0  0  0  0  0  0
    3.9751    1.8365   24.1394 O   0  0  0  0  0  0
    2.4288    1.4364   22.5986 O   0  5  0  0  0  0
    6.0130    1.8391   22.3463 N   0  0  0  0  0  0
    6.8180    1.1742   23.1854 C   0  0  0  0  0  0
    6.6063    0.0199   23.5542 O   0  0  0  0  0  0
    8.0298    1.9121   23.7664 C   0  0  1  0  0  0
    8.2817    3.3990   23.3619 C   0  0  2  0  0  0
    9.6054    3.9728   23.9434 C   0  0  0  0  0  0
   10.8731    3.2149   23.5645 C   0  0  0  0  0  0
   11.1817    1.9774   24.1708 C   0  0  0  0  0  0
   12.3100    1.2479   23.7629 C   0  0  0  0  0  0
   13.1750    1.7761   22.7911 C   0  0  0  0  0  0
   12.9160    3.0417   22.2336 C   0  0  0  0  0  0
   11.7691    3.7569   22.6188 C   0  0  0  0  0  0
    7.1566    4.2723   23.7707 N   0  3  0  0  0  0
    7.9750    1.8415   25.1813 O   0  0  0  0  0  0
    4.3139    0.6409   18.3334 H   0  0  0  0  0  0
    5.9947    0.9355   17.9146 H   0  0  0  0  0  0
    5.1759    2.0070   19.0305 H   0  0  0  0  0  0
    6.6969    0.4358   20.2384 H   0  0  0  0  0  0
    5.0782   -1.8065   18.9697 H   0  0  0  0  0  0
    6.3227   -2.0107   20.2042 H   0  0  0  0  0  0
    6.7420   -1.3642   18.6218 H   0  0  0  0  0  0
    3.7447   -0.1245   20.7363 H   0  0  0  0  0  0
    4.9772   -0.7142   21.7875 H   0  0  0  0  0  0
    4.4213    2.2133   21.1470 H   0  0  0  0  0  0
    6.2696    2.7677   22.0346 H   0  0  0  0  0  0
    8.8576    1.2987   23.4204 H   0  0  0  0  0  0
    8.3491    3.4587   22.2742 H   0  0  0  0  0  0
    9.7199    5.0091   23.6217 H   0  0  0  0  0  0
    9.5490    4.0089   25.0317 H   0  0  0  0  0  0
   10.5430    1.5644   24.9378 H   0  0  0  0  0  0
   12.5063    0.2834   24.1985 H   0  0  0  0  0  0
   14.0497    1.2206   22.4849 H   0  0  0  0  0  0
   13.5900    3.4537   21.4972 H   0  0  0  0  0  0
   11.5753    4.7201   22.1710 H   0  0  0  0  0  0
    6.8509    4.0092   24.6973 H   0  0  0  0  0  0
    6.3816    4.1928   23.1148 H   0  0  0  0  0  0
    7.1463    1.4361   25.4408 H   0  0  0  0  0  0
    7.4543    5.2353   23.7601 H   0  0  0  0  0  0
  1  2  1  0  0  0
  1 23  1  0  0  0
  1 24  1  0  0  0
  1 25  1  0  0  0
  2  3  1  0  0  0
  2  4  1  0  0  0
  2 26  1  0  0  0
  3 27  1  0  0  0
  3 28  1  0  0  0
  3 29  1  0  0  0
  4  5  1  0  0  0
  4 30  1  0  0  0
  4 31  1  0  0  0
  5  6  1  0  0  0
  5  9  1  0  0  0
  5 32  1  0  0  0
  6  7  2  0  0  0
  6  8  1  0  0  0
  9 10  1  0  0  0
  9 33  1  0  0  0
 10 11  2  0  0  0
 10 12  1  0  0  0
 12 13  1  0  0  0
 12 22  1  0  0  0
 12 34  1  0  0  0
 13 14  1  0  0  0
 13 21  1  0  0  0
 13 35  1  0  0  0
 14 15  1  0  0  0
 14 36  1  0  0  0
 14 37  1  0  0  0
 15 16  2  0  0  0
 15 20  1  0  0  0
 16 17  1  0  0  0
 16 38  1  0  0  0
 17 18  2  0  0  0
 17 39  1  0  0  0
 18 19  1  0  0  0
 18 40  1  0  0  0
 19 20  2  0  0  0
 19 41  1  0  0  0
 20 42  1  0  0  0
 21 43  1  0  0  0
 21 44  1  0  0  0
 21 46  1  0  0  0
 22 45  1  0  0  0
M  CHG  2   8  -1  21   1
M  END
> <s_m_entry_id>
43

> <s_m_entry_name>
Compounds-withfrags-for-validation-docking.1910

> <s_m_Source_Path>
/home/rodolpho/data/melina/maestro/glide-dock_XP_5RGK_M-PRO_VALIDATION

> <s_m_Source_File>
glide-dock_XP_5RGK_M-PRO_VALIDATION_pv.maegz

> <i_m_Source_File_Index>
43

> <CID>
Ubenimex

> <Potency>
12.83

> <pIC50>
4.89177

> <Source>
https://doi.org/10.1101/2020.03.23.004580

> <smiles>
C(C(C([H])([H])[H])(C(C(C(=O)O[H])(N(C(=O)C(C(C(C1=C([H])C([H])=C([H])C([H])=C1[H])([H])[H])(N([H])[H])[H])(O[H])[H])[H])[H])([H])[H])[H])([H])([H])[H]

> <Outcome>
Inactive

> <StandardizerResult>
Clear Stereo (ID: ClearStereo)
Wedge Clean (ID: WedgeClean)
Mesomerize (ID: Mesomerize)
Tautomerize (ID: Tautomerize)
Aromatize (ID: Aromatize)
Add Explicit Hydrogens (ID: AddExplicitH)
Neutralize (ID: Neutralize)
Clean 2D (ID: Clean2D)

> <chiral flag>
0

> <version>
0

> <i_lp_mmshare_version>
41011

> <i_f3d_flags>
0

> <s_epik_input>
W0NIM11bQ0hdKFtDSDNdKVtDSDJdW0NAQEhdKEMoPU8pW09IXSlbTkhdQyg9TylbQ0BIXShbT0hdKVtDQEBIXShbTkgyXSlbQ0gyXWMxW2NIXVtjSF1bY0hdW2NIXVtjSF0x

> <s_epik_cmdline>
J2VwaWtfcHl0aG9uJywgJy1waHQnLCAnMC41JywgJy1waCcsICc3LjQnLCAnLXRuJywgJzgnLCAnLW1hJywgJzIwMCcsICctaW1hZScsICc8aW5maWxlLm1hZT4nLCAnLW9tYWUnLCAnPG91dGZpbGUubWFlPic=

> <r_epik_Ionization_Penalty>
0.0844

> <r_epik_Ionization_Penalty_Charging>
0.0843

> <r_epik_Ionization_Penalty_Neutral>
1.0E-4

> <r_epik_State_Penalty>
0.0749

> <r_epik_Charging_Adjusted_Penalty>
0.15915

> <i_epik_Tot_Q>
0

> <i_epik_Tot_abs_Q>
2

> <s_lp_Force_Field>
OPLS3

> <r_lp_Energy>
26.2679

> <b_lp_Chiralities_Consistent>
1

> <s_lp_Variant>
ligprep_COVID_compounds-withfrags-smallmolecules-forvalidation.maegz:7-6

> <i_glide_original_lignum>
106

> <s_i_glide_gridfile>
glide-grid_5RGK_M-PRO_COVID

> <i_i_glide_lignum>
106

> <r_i_docking_score>
-6.32574053185814

> <r_i_glide_ligand_efficiency>
-0.287533660539006

> <r_i_glide_ligand_efficiency_sa>
-0.80568062488748

> <r_i_glide_ligand_efficiency_ln>
-1.5462417229783

> <r_glide_XP_GScore>
-6.40059643185814

> <r_i_glide_gscore>
-6.40059643185814

> <r_i_glide_evdw>
-25.2653789520264

> <r_i_glide_ecoul>
-18.1217079162598

> <r_i_glide_energy>
-43.3870868682861

> <r_i_glide_einternal>
12.5777111053467

> <r_i_glide_emodel>
-52.5700346291509

> <r_glide_XP_HBond>
-0.868375246971014

> <i_i_glide_confnum>
1

> <i_i_glide_posenum>
5

> <r_i_glide_eff_state_penalty>
0.0748559

> <i_glide_XP_PoseRank>
1

> <r_lp_tautomer_probability>


> <s_epik_Chemistry_Notes>


> <MW>


> <cLogP>


> <TPSA>


> <Rotatable Bonds>


> <Fraction sp3>


> <HBA>


> <HBD>


> <Structure ID>


> <Submission Fragments>


$$$$
ligprep_COVID_compounds-withfrags-smallmolecules-forvalidation.maegz:7
                    3D
 Structure written by MMmdl.
 46 46  0  0  1  0            999 V2000
    9.1723   -6.1655   25.0537 C   0  0  0  0  0  0
    9.7440   -4.8060   25.5099 C   0  0  0  0  0  0
    9.2827   -4.4252   26.9333 C   0  0  0  0  0  0
    9.4346   -3.6682   24.5048 C   0  0  0  0  0  0
    7.9407   -3.5099   24.0851 C   0  0  2  0  0  0
    7.5965   -4.5113   22.9381 C   0  0  0  0  0  0
    7.8555   -4.1193   21.7761 O   0  0  0  0  0  0
    7.1012   -5.5896   23.3339 O   0  5  0  0  0  0
    7.7056   -2.1632   23.5536 N   0  0  0  0  0  0
    7.0841   -1.1634   24.2025 C   0  0  0  0  0  0
    6.2549   -1.3623   25.0938 O   0  0  0  0  0  0
    7.4607    0.2666   23.7449 C   0  0  1  0  0  0
    6.2676    1.0629   23.1234 C   0  0  2  0  0  0
    5.2882    0.2367   22.2543 C   0  0  0  0  0  0
    5.5393    0.3887   20.7595 C   0  0  0  0  0  0
    4.7720    1.2833   20.0077 C   0  0  0  0  0  0
    5.0107    1.4281   18.6436 C   0  0  0  0  0  0
    6.0146    0.6776   18.0353 C   0  0  0  0  0  0
    6.7822   -0.2169   18.7784 C   0  0  0  0  0  0
    6.5444   -0.3620   20.1428 C   0  0  0  0  0  0
    6.7767    2.2355   22.2667 N   0  3  0  0  0  0
    8.0135    0.9823   24.8413 O   0  0  0  0  0  0
    8.4158   -6.0505   24.2770 H   0  0  0  0  0  0
    8.7112   -6.7235   25.8687 H   0  0  0  0  0  0
    9.9636   -6.7956   24.6465 H   0  0  0  0  0  0
   10.8277   -4.9149   25.5651 H   0  0  0  0  0  0
    8.4651   -5.0501   27.2926 H   0  0  0  0  0  0
    8.9347   -3.3933   26.9876 H   0  0  0  0  0  0
   10.1033   -4.5234   27.6445 H   0  0  0  0  0  0
    9.7733   -2.7333   24.9543 H   0  0  0  0  0  0
   10.0535   -3.7939   23.6140 H   0  0  0  0  0  0
    7.2692   -3.6894   24.9281 H   0  0  0  0  0  0
    8.0393   -2.0111   22.6123 H   0  0  0  0  0  0
    8.2393    0.1593   22.9874 H   0  0  0  0  0  0
    5.7020    1.5652   23.9109 H   0  0  0  0  0  0
    5.3720   -0.8231   22.5021 H   0  0  0  0  0  0
    4.2529    0.4981   22.4815 H   0  0  0  0  0  0
    3.9950    1.8686   20.4777 H   0  0  0  0  0  0
    4.4209    2.1196   18.0601 H   0  0  0  0  0  0
    6.1995    0.7906   16.9772 H   0  0  0  0  0  0
    7.5588   -0.7941   18.2983 H   0  0  0  0  0  0
    7.1429   -1.0534   20.7181 H   0  0  0  0  0  0
    7.3139    1.8833   21.4870 H   0  0  0  0  0  0
    7.3705    2.8372   22.8203 H   0  0  0  0  0  0
    7.3301    1.0961   25.5068 H   0  0  0  0  0  0
    6.0011    2.7771   21.9130 H   0  0  0  0  0  0
  1  2  1  0  0  0
  1 23  1  0  0  0
  1 24  1  0  0  0
  1 25  1  0  0  0
  2  3  1  0  0  0
  2  4  1  0  0  0
  2 26  1  0  0  0
  3 27  1  0  0  0
  3 28  1  0  0  0
  3 29  1  0  0  0
  4  5  1  0  0  0
  4 30  1  0  0  0
  4 31  1  0  0  0
  5  6  1  0  0  0
  5  9  1  0  0  0
  5 32  1  0  0  0
  6  7  2  0  0  0
  6  8  1  0  0  0
  9 10  1  0  0  0
  9 33  1  0  0  0
 10 11  2  0  0  0
 10 12  1  0  0  0
 12 13  1  0  0  0
 12 22  1  0  0  0
 12 34  1  0  0  0
 13 14  1  0  0  0
 13 21  1  0  0  0
 13 35  1  0  0  0
 14 15  1  0  0  0
 14 36  1  0  0  0
 14 37  1  0  0  0
 15 16  2  0  0  0
 15 20  1  0  0  0
 16 17  1  0  0  0
 16 38  1  0  0  0
 17 18  2  0  0  0
 17 39  1  0  0  0
 18 19  1  0  0  0
 18 40  1  0  0  0
 19 20  2  0  0  0
 19 41  1  0  0  0
 20 42  1  0  0  0
 21 43  1  0  0  0
 21 44  1  0  0  0
 21 46  1  0  0  0
 22 45  1  0  0  0
M  CHG  2   8  -1  21   1
M  END
> <s_m_entry_id>
47

> <s_m_entry_name>
Compounds-withfrags-for-validation-docking.1910

> <s_m_Source_Path>
/home/rodolpho/data/melina/maestro/glide-dock_XP_5RGK_M-PRO_VALIDATION

> <s_m_Source_File>
glide-dock_XP_5RGK_M-PRO_VALIDATION_pv.maegz

> <i_m_Source_File_Index>
47

> <CID>
Ubenimex

> <Potency>
12.83

> <pIC50>
4.89177

> <Source>
https://doi.org/10.1101/2020.03.23.004580

> <smiles>
C(C(C([H])([H])[H])(C(C(C(=O)O[H])(N(C(=O)C(C(C(C1=C([H])C([H])=C([H])C([H])=C1[H])([H])[H])(N([H])[H])[H])(O[H])[H])[H])[H])([H])[H])[H])([H])([H])[H]

> <Outcome>
Inactive

> <StandardizerResult>
Clear Stereo (ID: ClearStereo)
Wedge Clean (ID: WedgeClean)
Mesomerize (ID: Mesomerize)
Tautomerize (ID: Tautomerize)
Aromatize (ID: Aromatize)
Add Explicit Hydrogens (ID: AddExplicitH)
Neutralize (ID: Neutralize)
Clean 2D (ID: Clean2D)

> <chiral flag>
0

> <version>
0

> <i_lp_mmshare_version>
41011

> <i_f3d_flags>
0

> <s_epik_input>
W0NIM11bQ0hdKFtDSDNdKVtDSDJdW0NASF0oQyg9TylbT0hdKVtOSF1DKD1PKVtDQEhdKFtPSF0pW0NAQEhdKFtOSDJdKVtDSDJdYzFbY0hdW2NIXVtjSF1bY0hdW2NIXTE=

> <s_epik_cmdline>
J2VwaWtfcHl0aG9uJywgJy1waHQnLCAnMC41JywgJy1waCcsICc3LjQnLCAnLXRuJywgJzgnLCAnLW1hJywgJzIwMCcsICctaW1hZScsICc8aW5maWxlLm1hZT4nLCAnLW9tYWUnLCAnPG91dGZpbGUubWFlPic=

> <r_epik_Ionization_Penalty>
0.0844

> <r_epik_Ionization_Penalty_Charging>
0.0843

> <r_epik_Ionization_Penalty_Neutral>
1.0E-4

> <r_epik_State_Penalty>
0.0749

> <r_epik_Charging_Adjusted_Penalty>
0.15915

> <i_epik_Tot_Q>
0

> <i_epik_Tot_abs_Q>
2

> <s_lp_Force_Field>
OPLS3

> <r_lp_Energy>
21.999

> <b_lp_Chiralities_Consistent>
1

> <s_lp_Variant>
ligprep_COVID_compounds-withfrags-smallmolecules-forvalidation.maegz:7-5

> <i_glide_original_lignum>
105

> <s_i_glide_gridfile>
glide-grid_5RGK_M-PRO_COVID

> <i_i_glide_lignum>
105

> <r_i_docking_score>
-6.27684132835156

> <r_i_glide_ligand_efficiency>
-0.285310969470526

> <r_i_glide_ligand_efficiency_sa>
-0.799452557100117

> <r_i_glide_ligand_efficiency_ln>
-1.53428897399951

> <r_glide_XP_GScore>
-6.35169722835156

> <r_i_glide_gscore>
-6.35169722835156

> <r_i_glide_evdw>
-27.4836444854736

> <r_i_glide_ecoul>
-13.3650722503662

> <r_i_glide_energy>
-40.8487167358398

> <r_i_glide_einternal>
8.61963272094727

> <r_i_glide_emodel>
-52.6156875712839

> <r_glide_XP_HBond>
-1.98426478272772

> <i_i_glide_confnum>
1

> <i_i_glide_posenum>
33

> <r_i_glide_eff_state_penalty>
0.0748559

> <i_glide_XP_PoseRank>
1

> <r_lp_tautomer_probability>


> <s_epik_Chemistry_Notes>


> <MW>


> <cLogP>


> <TPSA>


> <Rotatable Bonds>


> <Fraction sp3>


> <HBA>


> <HBD>


> <Structure ID>


> <Submission Fragments>


$$$$
ligprep_COVID_compounds-withfrags-smallmolecules-forvalidation.maegz:1
                    3D
 Structure written by MMmdl.
 43 45  0  0  1  0            999 V2000
    8.9586   -0.4732   27.6494 C   0  0  0  0  0  0
    8.9716   -0.5017   26.1233 C   0  0  0  0  0  0
    9.7441    0.6828   25.5241 C   0  0  0  0  0  0
    7.6088   -0.5641   25.6387 N   0  0  0  0  0  0
    7.1746   -0.5193   24.3343 C   0  0  0  0  0  0
    6.8970    0.6518   23.7686 N   0  0  0  0  0  0
    6.5294    0.2804   22.5007 C   0  0  0  0  0  0
    6.0909    1.0589   21.4078 C   0  0  0  0  0  0
    5.7852    0.4475   20.1772 C   0  0  0  0  0  0
    5.9580   -0.9445   20.0358 C   0  0  0  0  0  0
    6.3749   -1.7337   21.1171 C   0  0  0  0  0  0
    6.6308   -1.1301   22.3500 C   0  0  0  0  0  0
    7.0005   -1.6357   23.5838 N   0  0  0  0  0  0
    6.9938   -3.1126   23.9237 C   0  0  1  0  0  0
    8.0547   -3.9169   23.1479 C   0  0  2  0  0  0
    7.4907   -5.0806   22.5706 O   0  0  0  0  0  0
    9.0376   -4.3164   24.2339 C   0  0  1  0  0  0
   10.0766   -3.3639   24.3266 O   0  0  0  0  0  0
    8.1512   -4.3507   25.4906 C   0  0  1  0  0  0
    8.8314   -4.1639   26.8521 C   0  0  0  0  0  0
    9.9751   -4.9639   26.9676 O   0  0  0  0  0  0
    7.2199   -3.3004   25.2847 O   0  0  0  0  0  0
    5.5756   -1.7246   18.5654 Cl  0  0  0  0  0  0
    5.1774    1.3973   18.8649 Cl  0  0  0  0  0  0
    9.9633   -0.5546   28.0648 H   0  0  0  0  0  0
    8.3732   -1.3087   28.0208 H   0  0  0  0  0  0
    8.4868    0.4329   28.0297 H   0  0  0  0  0  0
    9.4703   -1.4052   25.7866 H   0  0  0  0  0  0
   10.7736    0.6920   25.8776 H   0  0  0  0  0  0
    9.2820    1.6374   25.7778 H   0  0  0  0  0  0
    9.7848    0.6170   24.4364 H   0  0  0  0  0  0
    7.0433    0.1223   26.1411 H   0  0  0  0  0  0
    5.9906    2.1277   21.5226 H   0  0  0  0  0  0
    6.4879   -2.7961   21.0147 H   0  0  0  0  0  0
    5.9812   -3.4276   23.6926 H   0  0  0  0  0  0
    8.5164   -3.3349   22.3527 H   0  0  0  0  0  0
    7.1072   -5.5984   23.2627 H   0  0  0  0  0  0
    9.5003   -5.2864   24.0452 H   0  0  0  0  0  0
   10.6810   -3.6817   24.9845 H   0  0  0  0  0  0
    7.5983   -5.2917   25.4941 H   0  0  0  0  0  0
    9.1623   -3.1404   26.9705 H   0  0  0  0  0  0
    8.1402   -4.3728   27.6694 H   0  0  0  0  0  0
    9.7249   -5.8624   27.1591 H   0  0  0  0  0  0
  1  2  1  0  0  0
  1 25  1  0  0  0
  1 26  1  0  0  0
  1 27  1  0  0  0
  2  3  1  0  0  0
  2  4  1  0  0  0
  2 28  1  0  0  0
  3 29  1  0  0  0
  3 30  1  0  0  0
  3 31  1  0  0  0
  4  5  1  0  0  0
  4 32  1  0  0  0
  5  6  2  0  0  0
  5 13  1  0  0  0
  6  7  1  0  0  0
  7  8  2  0  0  0
  7 12  1  0  0  0
  8  9  1  0  0  0
  8 33  1  0  0  0
  9 10  2  0  0  0
  9 24  1  0  0  0
 10 11  1  0  0  0
 10 23  1  0  0  0
 11 12  2  0  0  0
 11 34  1  0  0  0
 12 13  1  0  0  0
 13 14  1  0  0  0
 14 15  1  0  0  0
 14 22  1  0  0  0
 14 35  1  0  0  0
 15 16  1  0  0  0
 15 17  1  0  0  0
 15 36  1  0  0  0
 16 37  1  0  0  0
 17 18  1  0  0  0
 17 19  1  0  0  0
 17 38  1  0  0  0
 18 39  1  0  0  0
 19 20  1  0  0  0
 19 22  1  0  0  0
 19 40  1  0  0  0
 20 21  1  0  0  0
 20 41  1  0  0  0
 20 42  1  0  0  0
 21 43  1  0  0  0
M  END
> <s_m_entry_id>
48

> <s_m_entry_name>
Compounds-withfrags-for-validation-docking.1916

> <s_m_Source_Path>
/home/rodolpho/data/melina/maestro/glide-dock_XP_5RGK_M-PRO_VALIDATION

> <s_m_Source_File>
glide-dock_XP_5RGK_M-PRO_VALIDATION_pv.maegz

> <i_m_Source_File_Index>
48

> <CID>
Maribavir

> <pIC50>
4.30103

> <Source>
https://doi.org/10.1101/2020.03.23.004580

> <smiles>
C(C(C([H])([H])[H])(N(C1=NC2=C(C(=C(C([H])=C2N1C1(C(O[H])([H])C(O[H])([H])C(C(O[H])([H])[H])([H])O1)[H])Cl)Cl)[H])[H])[H])([H])([H])[H]

> <Outcome>
Inactive

> <StandardizerResult>
Clear Stereo (ID: ClearStereo)
Wedge Clean (ID: WedgeClean)
Mesomerize (ID: Mesomerize)
Tautomerize (ID: Tautomerize)
Aromatize (ID: Aromatize)
Add Explicit Hydrogens (ID: AddExplicitH)
Neutralize (ID: Neutralize)
Clean 2D (ID: Clean2D)

> <chiral flag>
0

> <version>
0

> <i_lp_mmshare_version>
41011

> <i_f3d_flags>
0

> <s_epik_input>
W2NIXTFjKENsKWMoQ2wpW2NIXWMoYzEyKW4oYyhuMilbTkhdW0NIXShbQ0gzXSlbQ0gzXSlbQ0BIXTNbQ0BIXShbT0hdKVtDQEBIXShbT0hdKVtDQEhdKE8zKVtDSDJdW09IXQ==

> <s_epik_cmdline>
J2VwaWtfcHl0aG9uJywgJy1waHQnLCAnMC41JywgJy1waCcsICc3LjQnLCAnLXRuJywgJzgnLCAnLW1hJywgJzIwMCcsICctaW1hZScsICc8aW5maWxlLm1hZT4nLCAnLW9tYWUnLCAnPG91dGZpbGUubWFlPic=

> <r_epik_Ionization_Penalty>
0.01

> <r_epik_Ionization_Penalty_Charging>
0.0

> <r_epik_Ionization_Penalty_Neutral>
0.01

> <r_epik_State_Penalty>
0.0076

> <r_epik_Charging_Adjusted_Penalty>
0.00760364

> <i_epik_Tot_Q>
0

> <i_epik_Tot_abs_Q>
0

> <s_lp_Force_Field>
OPLS3

> <r_lp_Energy>
14.8219

> <b_lp_Chiralities_Consistent>
1

> <s_lp_Variant>
ligprep_COVID_compounds-withfrags-smallmolecules-forvalidation.maegz:1-1

> <i_glide_original_lignum>
1

> <s_i_glide_gridfile>
glide-grid_5RGK_M-PRO_COVID

> <i_i_glide_lignum>
1

> <r_i_docking_score>
-6.27371409433277

> <r_i_glide_ligand_efficiency>
-0.261404753930532

> <r_i_glide_ligand_efficiency_sa>
-0.754021787266473

> <r_i_glide_ligand_efficiency_ln>
-1.50158766475498

> <r_glide_XP_GScore>
-6.28131773433277

> <r_i_glide_gscore>
-6.28131773433277

> <r_i_glide_evdw>
-25.2009906768799

> <r_i_glide_ecoul>
-13.4044666290283

> <r_i_glide_energy>
-38.6054573059082

> <r_i_glide_einternal>
0.0

> <r_i_glide_emodel>
-43.7227106261009

> <r_glide_XP_HBond>
-2.41202525714137

> <i_i_glide_confnum>
1

> <i_i_glide_posenum>
26

> <r_i_glide_eff_state_penalty>
0.00760364

> <i_glide_XP_PoseRank>
1

> <s_epik_Chemistry_Notes>
This compound contains an acetal/aminal-like group ( X-CH(R)-Y where X, Y are N, S, or O) that may be acid/base labile, releasing an aldehyde.

> <Potency>
50.0

> <r_lp_tautomer_probability>


> <MW>


> <cLogP>


> <TPSA>


> <Rotatable Bonds>


> <Fraction sp3>


> <HBA>


> <HBD>


> <Structure ID>


> <Submission Fragments>


$$$$
ligprep_COVID_compounds-withfrags-smallmolecules-forvalidation.maegz:1
                    3D
 Structure written by MMmdl.
 43 45  0  0  1  0            999 V2000
    9.0305    3.5352   23.3834 C   0  0  0  0  0  0
    7.9551    3.0838   24.3793 C   0  0  0  0  0  0
    8.5235    2.9530   25.7918 C   0  0  0  0  0  0
    7.3062    1.8654   23.9235 N   0  0  0  0  0  0
    7.5475    0.4941   23.9789 C   0  0  0  0  0  0
    8.3305   -0.0789   24.8926 N   0  0  0  0  0  0
    8.1669   -1.4207   24.6206 C   0  0  0  0  0  0
    8.6658   -2.5543   25.2961 C   0  0  0  0  0  0
    8.4884   -3.8500   24.7706 C   0  0  0  0  0  0
    7.7643   -4.0298   23.5708 C   0  0  0  0  0  0
    7.1928   -2.9133   22.9289 C   0  0  0  0  0  0
    7.3658   -1.6172   23.4628 C   0  0  0  0  0  0
    6.9265   -0.3445   23.1002 N   0  0  0  0  0  0
    5.8674   -0.0678   22.0536 C   0  0  1  0  0  0
    5.9060    1.3576   21.4635 C   0  0  2  0  0  0
    4.9886    2.2362   22.0904 O   0  0  0  0  0  0
    5.5711    1.1124   20.0097 C   0  0  2  0  0  0
    4.1722    1.0363   19.8011 O   0  0  0  0  0  0
    6.3187   -0.1952   19.7872 C   0  0  2  0  0  0
    5.9398   -0.9818   18.5386 C   0  0  0  0  0  0
    5.9727   -0.1965   17.3718 O   0  0  0  0  0  0
    6.0721   -0.9362   20.9769 O   0  0  0  0  0  0
    7.5516   -5.6032   22.8827 Cl  0  0  0  0  0  0
    9.1789   -5.1955   25.6061 Cl  0  0  0  0  0  0
    9.4488    4.5007   23.6684 H   0  0  0  0  0  0
    8.6171    3.6436   22.3788 H   0  0  0  0  0  0
    9.8505    2.8179   23.3415 H   0  0  0  0  0  0
    7.1764    3.8476   24.4018 H   0  0  0  0  0  0
    8.8597    3.9189   26.1689 H   0  0  0  0  0  0
    9.3784    2.2769   25.7842 H   0  0  0  0  0  0
    7.7814    2.5656   26.4904 H   0  0  0  0  0  0
    6.5400    2.0867   23.2952 H   0  0  0  0  0  0
    9.1750   -2.4223   26.2337 H   0  0  0  0  0  0
    6.6169   -3.0545   22.0271 H   0  0  0  0  0  0
    4.9237   -0.3142   22.5431 H   0  0  0  0  0  0
    6.9217    1.7527   21.4792 H   0  0  0  0  0  0
    5.1743    3.1394   21.7753 H   0  0  0  0  0  0
    5.9690    1.8633   19.3384 H   0  0  0  0  0  0
    3.8144    1.8714   20.0667 H   0  0  0  0  0  0
    7.3890    0.0214   19.7536 H   0  0  0  0  0  0
    6.6619   -1.7709   18.3956 H   0  0  0  0  0  0
    4.9579   -1.4322   18.6585 H   0  0  0  0  0  0
    5.4674   -0.6801   16.7249 H   0  0  0  0  0  0
  1  2  1  0  0  0
  1 25  1  0  0  0
  1 26  1  0  0  0
  1 27  1  0  0  0
  2  3  1  0  0  0
  2  4  1  0  0  0
  2 28  1  0  0  0
  3 29  1  0  0  0
  3 30  1  0  0  0
  3 31  1  0  0  0
  4  5  1  0  0  0
  4 32  1  0  0  0
  5  6  2  0  0  0
  5 13  1  0  0  0
  6  7  1  0  0  0
  7  8  2  0  0  0
  7 12  1  0  0  0
  8  9  1  0  0  0
  8 33  1  0  0  0
  9 10  2  0  0  0
  9 24  1  0  0  0
 10 11  1  0  0  0
 10 23  1  0  0  0
 11 12  2  0  0  0
 11 34  1  0  0  0
 12 13  1  0  0  0
 13 14  1  0  0  0
 14 15  1  0  0  0
 14 22  1  0  0  0
 14 35  1  0  0  0
 15 16  1  0  0  0
 15 17  1  0  0  0
 15 36  1  0  0  0
 16 37  1  0  0  0
 17 18  1  0  0  0
 17 19  1  0  0  0
 17 38  1  0  0  0
 18 39  1  0  0  0
 19 20  1  0  0  0
 19 22  1  0  0  0
 19 40  1  0  0  0
 20 21  1  0  0  0
 20 41  1  0  0  0
 20 42  1  0  0  0
 21 43  1  0  0  0
M  END
> <s_m_entry_id>
66

> <s_m_entry_name>
Compounds-withfrags-for-validation-docking.1916

> <s_m_Source_Path>
/home/rodolpho/data/melina/maestro/glide-dock_XP_5RGK_M-PRO_VALIDATION

> <s_m_Source_File>
glide-dock_XP_5RGK_M-PRO_VALIDATION_pv.maegz

> <i_m_Source_File_Index>
66

> <CID>
Maribavir

> <pIC50>
4.30103

> <Source>
https://doi.org/10.1101/2020.03.23.004580

> <smiles>
C(C(C([H])([H])[H])(N(C1=NC2=C(C(=C(C([H])=C2N1C1(C(O[H])([H])C(O[H])([H])C(C(O[H])([H])[H])([H])O1)[H])Cl)Cl)[H])[H])[H])([H])([H])[H]

> <Outcome>
Inactive

> <StandardizerResult>
Clear Stereo (ID: ClearStereo)
Wedge Clean (ID: WedgeClean)
Mesomerize (ID: Mesomerize)
Tautomerize (ID: Tautomerize)
Aromatize (ID: Aromatize)
Add Explicit Hydrogens (ID: AddExplicitH)
Neutralize (ID: Neutralize)
Clean 2D (ID: Clean2D)

> <chiral flag>
0

> <version>
0

> <i_lp_mmshare_version>
41011

> <i_f3d_flags>
0

> <s_epik_input>
W2NIXTFjKENsKWMoQ2wpW2NIXWMoYzEyKW4oYyhuMilbTkhdW0NIXShbQ0gzXSlbQ0gzXSlbQ0BIXTNbQ0BIXShbT0hdKVtDQEhdKFtPSF0pW0NAQEhdKE8zKVtDSDJdW09IXQ==

> <s_epik_cmdline>
J2VwaWtfcHl0aG9uJywgJy1waHQnLCAnMC41JywgJy1waCcsICc3LjQnLCAnLXRuJywgJzgnLCAnLW1hJywgJzIwMCcsICctaW1hZScsICc8aW5maWxlLm1hZT4nLCAnLW9tYWUnLCAnPG91dGZpbGUubWFlPic=

> <r_epik_Ionization_Penalty>
0.01

> <r_epik_Ionization_Penalty_Charging>
0.0

> <r_epik_Ionization_Penalty_Neutral>
0.01

> <r_epik_State_Penalty>
0.0076

> <r_epik_Charging_Adjusted_Penalty>
0.00760364

> <i_epik_Tot_Q>
0

> <i_epik_Tot_abs_Q>
0

> <s_lp_Force_Field>
OPLS3

> <r_lp_Energy>
14.0653

> <b_lp_Chiralities_Consistent>
1

> <s_lp_Variant>
ligprep_COVID_compounds-withfrags-smallmolecules-forvalidation.maegz:1-13

> <i_glide_original_lignum>
13

> <s_i_glide_gridfile>
glide-grid_5RGK_M-PRO_COVID

> <i_i_glide_lignum>
13

> <r_i_docking_score>
-6.0507954932846

> <r_i_glide_ligand_efficiency>
-0.252116478886858

> <r_i_glide_ligand_efficiency_sa>
-0.727229765913585

> <r_i_glide_ligand_efficiency_ln>
-1.44823301445609

> <r_glide_XP_GScore>
-6.0583991332846

> <r_i_glide_gscore>
-6.0583991332846

> <r_i_glide_evdw>
-27.4929332733154

> <r_i_glide_ecoul>
-11.5786781311035

> <r_i_glide_energy>
-39.0716114044189

> <r_i_glide_einternal>
8.77143096923828

> <r_i_glide_emodel>
-47.2383203358213

> <r_glide_XP_HBond>
-2.24359483530234

> <i_i_glide_confnum>
1

> <i_i_glide_posenum>
1

> <r_i_glide_eff_state_penalty>
0.00760364

> <i_glide_XP_PoseRank>
1

> <s_epik_Chemistry_Notes>
This compound contains an acetal/aminal-like group ( X-CH(R)-Y where X, Y are N, S, or O) that may be acid/base labile, releasing an aldehyde.

> <Potency>
50.0

> <r_lp_tautomer_probability>


> <MW>


> <cLogP>


> <TPSA>


> <Rotatable Bonds>


> <Fraction sp3>


> <HBA>


> <HBD>


> <Structure ID>


> <Submission Fragments>


$$$$
ligprep_COVID_compounds-withfrags-smallmolecules-forvalidation.maegz:4
                    3D
 Structure written by MMmdl.
 93 97  0  0  1  0            999 V2000
    4.5801    9.2508   22.8988 C   0  0  0  0  0  0
    4.9932    8.1015   21.9528 C   0  0  0  0  0  0
    3.7238    7.4556   21.3884 C   0  0  0  0  0  0
    5.8356    8.6326   20.7840 C   0  0  0  0  0  0
    5.7439    7.0363   22.6329 N   0  0  0  0  0  0
    6.7127    7.1274   23.5688 C   0  0  0  0  0  0
    7.0914    8.1931   24.0497 O   0  0  0  0  0  0
    7.4057    5.8349   24.0590 C   0  0  2  0  0  0
    8.8491    5.8547   23.4812 C   0  0  0  0  0  0
    9.5403    4.5986   23.7445 N   0  0  0  0  0  0
   10.9402    4.6785   23.3402 C   0  0  0  0  0  0
   11.6943    3.3592   23.3704 C   0  0  0  0  0  0
   11.3040    2.2624   24.1709 C   0  0  0  0  0  0
   12.0379    1.0690   24.1214 C   0  0  0  0  0  0
   13.1713    1.0352   23.2958 C   0  0  0  0  0  0
   13.5748    2.0873   22.5707 N   0  0  0  0  0  0
   12.8471    3.2153   22.5809 C   0  0  0  0  0  0
    8.7882    3.6186   22.9740 C   0  0  0  0  0  0
    7.5226    3.3741   23.7449 C   0  0  0  0  0  0
    6.6440    4.5642   23.7707 N   0  3  1  0  0  0
    5.5550    4.3465   24.7682 C   0  0  0  0  0  0
    4.3411    3.4956   24.3171 C   0  0  1  0  0  0
    4.5649    2.0491   23.7685 C   0  0  0  0  0  0
    4.6780    1.8788   22.2481 C   0  0  1  0  0  0
    5.2387    0.4740   21.9181 C   0  0  0  0  0  0
    5.5918    0.1851   20.4666 C   0  0  0  0  0  0
    5.5576    1.1674   19.4524 C   0  0  0  0  0  0
    5.7278    0.8114   18.1035 C   0  0  0  0  0  0
    5.9203   -0.5388   17.7708 C   0  0  0  0  0  0
    5.9754   -1.5141   18.7722 C   0  0  0  0  0  0
    5.8899   -1.1438   20.1210 C   0  0  0  0  0  0
    3.3240    2.1957   21.6078 C   0  0  0  0  0  0
    2.4627    1.3530   21.3718 O   0  0  0  0  0  0
    3.1717    3.4913   21.3709 N   0  0  0  0  0  0
    1.9541    4.2077   21.0099 C   0  0  2  0  0  0
    0.7195    3.8949   21.8242 C   0  0  0  0  0  0
    0.6148    3.7645   23.2222 C   0  0  0  0  0  0
   -0.6490    3.4578   23.7725 C   0  0  0  0  0  0
   -1.7778    3.2981   22.9320 C   0  0  0  0  0  0
   -1.6542    3.4378   21.5319 C   0  0  0  0  0  0
   -0.3888    3.7362   21.0025 C   0  0  0  0  0  0
   -0.0311    3.9002   19.5535 C   0  0  0  0  0  0
    1.5158    3.9760   19.5421 C   0  0  1  0  0  0
    1.9751    5.0524   18.7644 O   0  0  0  0  0  0
    3.5609    3.3426   25.4819 O   0  0  0  0  0  0
    3.8873    9.9309   22.4027 H   0  0  0  0  0  0
    5.4314    9.8537   23.2140 H   0  0  0  0  0  0
    4.0813    8.8713   23.7898 H   0  0  0  0  0  0
    3.0940    7.0657   22.1897 H   0  0  0  0  0  0
    3.9608    6.6362   20.7094 H   0  0  0  0  0  0
    3.1262    8.1742   20.8251 H   0  0  0  0  0  0
    5.3191    9.4262   20.2449 H   0  0  0  0  0  0
    6.0714    7.8455   20.0692 H   0  0  0  0  0  0
    6.7748    9.0362   21.1425 H   0  0  0  0  0  0
    5.5749    6.1136   22.2316 H   0  0  0  0  0  0
    7.5099    5.9110   25.1446 H   0  0  0  0  0  0
    8.8338    6.0619   22.4102 H   0  0  0  0  0  0
    9.4082    6.6736   23.9371 H   0  0  0  0  0  0
   11.0420    5.1214   22.3511 H   0  0  0  0  0  0
   11.4480    5.3658   24.0208 H   0  0  0  0  0  0
   10.4479    2.3191   24.8262 H   0  0  0  0  0  0
   11.7479    0.2196   24.7189 H   0  0  0  0  0  0
   13.7935    0.1589   23.2303 H   0  0  0  0  0  0
   13.2067    4.0283   21.9635 H   0  0  0  0  0  0
    8.5836    3.9015   21.9411 H   0  0  0  0  0  0
    9.2796    2.6569   22.9671 H   0  0  0  0  0  0
    7.0573    2.5413   23.2432 H   0  0  0  0  0  0
    7.7724    3.0432   24.7546 H   0  0  0  0  0  0
    5.9810    3.9394   25.6865 H   0  0  0  0  0  0
    5.1547    5.3206   25.0534 H   0  0  0  0  0  0
    3.7496    4.1036   23.6414 H   0  0  0  0  0  0
    5.4665    1.6073   24.1710 H   0  0  0  0  0  0
    3.7512    1.3991   24.1081 H   0  0  0  0  0  0
    5.3891    2.6198   21.8981 H   0  0  0  0  0  0
    6.1523    0.3023   22.4872 H   0  0  0  0  0  0
    4.5337   -0.2864   22.2597 H   0  0  0  0  0  0
    5.3564    2.2043   19.6773 H   0  0  0  0  0  0
    5.6583    1.5622   17.3310 H   0  0  0  0  0  0
    5.9749   -0.8593   16.7425 H   0  0  0  0  0  0
    6.0615   -2.5544   18.4941 H   0  0  0  0  0  0
    5.9219   -1.9132   20.8812 H   0  0  0  0  0  0
    4.0378    4.0363   21.3688 H   0  0  0  0  0  0
    2.1284    5.2671   21.1772 H   0  0  0  0  0  0
    1.4738    3.8906   23.8603 H   0  0  0  0  0  0
   -0.7578    3.3460   24.8431 H   0  0  0  0  0  0
   -2.7400    3.0616   23.3638 H   0  0  0  0  0  0
   -2.5078    3.3064   20.8831 H   0  0  0  0  0  0
   -0.4096    3.0680   18.9707 H   0  0  0  0  0  0
   -0.4837    4.8173   19.1791 H   0  0  0  0  0  0
    1.9199    3.0382   19.1619 H   0  0  0  0  0  0
    2.9257    5.0432   18.8778 H   0  0  0  0  0  0
    3.2171    4.1855   25.7409 H   0  0  0  0  0  0
    6.2493    4.6349   22.8231 H   0  0  0  0  0  0
  1  2  1  0  0  0
  1 46  1  0  0  0
  1 47  1  0  0  0
  1 48  1  0  0  0
  2  3  1  0  0  0
  2  4  1  0  0  0
  2  5  1  0  0  0
  3 49  1  0  0  0
  3 50  1  0  0  0
  3 51  1  0  0  0
  4 52  1  0  0  0
  4 53  1  0  0  0
  4 54  1  0  0  0
  5  6  1  0  0  0
  5 55  1  0  0  0
  6  7  2  0  0  0
  6  8  1  0  0  0
  8  9  1  0  0  0
  8 20  1  0  0  0
  8 56  1  0  0  0
  9 10  1  0  0  0
  9 57  1  0  0  0
  9 58  1  0  0  0
 10 11  1  0  0  0
 10 18  1  0  0  0
 11 12  1  0  0  0
 11 59  1  0  0  0
 11 60  1  0  0  0
 12 13  2  0  0  0
 12 17  1  0  0  0
 13 14  1  0  0  0
 13 61  1  0  0  0
 14 15  2  0  0  0
 14 62  1  0  0  0
 15 16  1  0  0  0
 15 63  1  0  0  0
 16 17  2  0  0  0
 17 64  1  0  0  0
 18 19  1  0  0  0
 18 65  1  0  0  0
 18 66  1  0  0  0
 19 20  1  0  0  0
 19 67  1  0  0  0
 19 68  1  0  0  0
 20 21  1  0  0  0
 20 93  1  0  0  0
 21 22  1  0  0  0
 21 69  1  0  0  0
 21 70  1  0  0  0
 22 23  1  0  0  0
 22 45  1  0  0  0
 22 71  1  0  0  0
 23 24  1  0  0  0
 23 72  1  0  0  0
 23 73  1  0  0  0
 24 25  1  0  0  0
 24 32  1  0  0  0
 24 74  1  0  0  0
 25 26  1  0  0  0
 25 75  1  0  0  0
 25 76  1  0  0  0
 26 27  2  0  0  0
 26 31  1  0  0  0
 27 28  1  0  0  0
 27 77  1  0  0  0
 28 29  2  0  0  0
 28 78  1  0  0  0
 29 30  1  0  0  0
 29 79  1  0  0  0
 30 31  2  0  0  0
 30 80  1  0  0  0
 31 81  1  0  0  0
 32 33  2  0  0  0
 32 34  1  0  0  0
 34 35  1  0  0  0
 34 82  1  0  0  0
 35 36  1  0  0  0
 35 43  1  0  0  0
 35 83  1  0  0  0
 36 37  2  0  0  0
 36 41  1  0  0  0
 37 38  1  0  0  0
 37 84  1  0  0  0
 38 39  2  0  0  0
 38 85  1  0  0  0
 39 40  1  0  0  0
 39 86  1  0  0  0
 40 41  2  0  0  0
 40 87  1  0  0  0
 41 42  1  0  0  0
 42 43  1  0  0  0
 42 88  1  0  0  0
 42 89  1  0  0  0
 43 44  1  0  0  0
 43 90  1  0  0  0
 44 91  1  0  0  0
 45 92  1  0  0  0
M  CHG  1  20   1
M  END
> <s_m_entry_id>
69

> <s_m_entry_name>
Compounds-withfrags-for-validation-docking.1913

> <s_m_Source_Path>
/home/rodolpho/data/melina/maestro/glide-dock_XP_5RGK_M-PRO_VALIDATION

> <s_m_Source_File>
glide-dock_XP_5RGK_M-PRO_VALIDATION_pv.maegz

> <i_m_Source_File_Index>
69

> <CID>
Indinavir

> <Potency>
43.13

> <pIC50>
4.36522

> <Source>
https://doi.org/10.1101/2020.03.23.004580

> <smiles>
C(C(C([H])([H])[H])(C([H])([H])[H])N(C(=O)C1(C([H])([H])N(C(C2=C([H])C([H])=C([H])N=C2[H])([H])[H])C([H])([H])C([H])([H])N1C(C(C(C(C(C1=C([H])C([H])=C([H])C([H])=C1[H])([H])[H])(C(=O)N(C1(C2=C(C(=C(C([H])=C2C([H])([H])C1(O[H])[H])[H])[H])[H])[H])[H])[H])([H])[H])(O[H])[H])([H])[H])[H])[H])([H])([H])[H]

> <Outcome>
Inactive

> <StandardizerResult>
Clear Stereo (ID: ClearStereo)
Wedge Clean (ID: WedgeClean)
Mesomerize (ID: Mesomerize)
Tautomerize (ID: Tautomerize)
Aromatize (ID: Aromatize)
Add Explicit Hydrogens (ID: AddExplicitH)
Neutralize (ID: Neutralize)
Clean 2D (ID: Clean2D)

> <chiral flag>
0

> <version>
0

> <i_lp_mmshare_version>
41011

> <i_f3d_flags>
0

> <s_epik_input>
W2NIXTFuW2NIXVtjSF1bY0hdYzFbQ0gyXU4oW0NIMl1bQ0BIXTJDKD1PKVtOSF1DKFtDSDNdKShbQ0gzXSlbQ0gzXSlbQ0gyXVtDSDJdTjJbQ0gyXVtDQEhdKFtPSF0pW0NIMl1bQ0BASF0oW0NIMl1jM1tjSF1bY0hdW2NIXVtjSF1bY0hdMylDKD1PKVtOSF1bQ0BIXTRbQ0BIXShbT0hdKVtDSDJdYyhjNDUpW2NIXVtjSF1bY0hdW2NIXTU=

> <s_epik_cmdline>
J2VwaWtfcHl0aG9uJywgJy1waHQnLCAnMC41JywgJy1waCcsICc3LjQnLCAnLXRuJywgJzgnLCAnLW1hJywgJzIwMCcsICctaW1hZScsICc8aW5maWxlLm1hZT4nLCAnLW9tYWUnLCAnPG91dGZpbGUubWFlPic=

> <r_epik_Ionization_Penalty>
0.3395

> <r_epik_Ionization_Penalty_Charging>
0.3352

> <r_epik_Ionization_Penalty_Neutral>
0.0044

> <r_epik_State_Penalty>
0.5191

> <r_epik_Charging_Adjusted_Penalty>
0.854238

> <i_epik_Tot_Q>
1

> <i_epik_Tot_abs_Q>
1

> <s_lp_Force_Field>
OPLS3

> <r_lp_Energy>
52.175

> <b_lp_Chiralities_Consistent>
1

> <s_lp_Variant>
ligprep_COVID_compounds-withfrags-smallmolecules-forvalidation.maegz:4-4

> <i_glide_original_lignum>
23

> <s_i_glide_gridfile>
glide-grid_5RGK_M-PRO_COVID

> <i_i_glide_lignum>
23

> <r_i_docking_score>
-6.02980254462744

> <r_i_glide_ligand_efficiency>
-0.133995612102832

> <r_i_glide_ligand_efficiency_sa>
-0.476608094914849

> <r_i_glide_ligand_efficiency_ln>
-1.25446763891999

> <r_glide_XP_GScore>
-6.54887454462744

> <r_i_glide_gscore>
-6.54887454462744

> <r_i_glide_evdw>
-33.3098602294922

> <r_i_glide_ecoul>
-24.6433391571045

> <r_i_glide_energy>
-57.9531993865967

> <r_i_glide_einternal>
12.6560249328613

> <r_i_glide_emodel>
-88.6962739370799

> <r_glide_XP_HBond>
-2.01861234466275

> <i_i_glide_confnum>
9

> <i_i_glide_posenum>
45

> <r_i_glide_eff_state_penalty>
0.519072

> <i_glide_XP_PoseRank>
1

> <r_lp_tautomer_probability>


> <s_epik_Chemistry_Notes>


> <MW>


> <cLogP>


> <TPSA>


> <Rotatable Bonds>


> <Fraction sp3>


> <HBA>


> <HBD>


> <Structure ID>


> <Submission Fragments>


$$$$
ligprep_COVID_compounds-withfrags-smallmolecules-forvalidation.maegz:7
                    3D
 Structure written by MMmdl.
 46 46  0  0  1  0            999 V2000
    8.4029   -3.7377   23.7676 C   0  0  0  0  0  0
    9.4449   -3.5374   24.8891 C   0  0  0  0  0  0
   10.0795   -4.8699   25.3414 C   0  0  0  0  0  0
    8.8395   -2.7393   26.0708 C   0  0  0  0  0  0
    8.6343   -1.2110   25.8335 C   0  0  1  0  0  0
    9.9553   -0.5635   25.3123 C   0  0  0  0  0  0
   10.2935   -0.9428   24.1693 O   0  0  0  0  0  0
   10.5139    0.2397   26.0954 O   0  5  0  0  0  0
    7.6232   -0.9874   24.7953 N   0  0  0  0  0  0
    7.4009    0.1734   24.1546 C   0  0  0  0  0  0
    8.0913    1.1786   24.3337 O   0  0  0  0  0  0
    6.2315    0.1825   23.1440 C   0  0  2  0  0  0
    5.8784    1.6077   22.6218 C   0  0  2  0  0  0
    4.9335    1.6142   21.3932 C   0  0  0  0  0  0
    5.4600    0.8127   20.2075 C   0  0  0  0  0  0
    6.7126    0.1978   20.2887 C   0  0  0  0  0  0
    7.1952   -0.5422   19.2128 C   0  0  0  0  0  0
    6.4249   -0.6633   18.0582 C   0  0  0  0  0  0
    5.1766   -0.0507   17.9691 C   0  0  0  0  0  0
    4.6928    0.6890   19.0452 C   0  0  0  0  0  0
    7.1578    2.3825   22.2562 N   0  3  0  0  0  0
    5.0906   -0.3801   23.7710 O   0  0  0  0  0  0
    8.1262   -4.7832   23.6322 H   0  0  0  0  0  0
    8.7882   -3.3775   22.8133 H   0  0  0  0  0  0
    7.4796   -3.1928   23.9658 H   0  0  0  0  0  0
   10.2420   -2.9336   24.4534 H   0  0  0  0  0  0
    9.7262   -5.1770   26.3259 H   0  0  0  0  0  0
   11.1643   -4.7756   25.3994 H   0  0  0  0  0  0
    9.8691   -5.6906   24.6558 H   0  0  0  0  0  0
    7.8930   -3.1956   26.3679 H   0  0  0  0  0  0
    9.5001   -2.8743   26.9287 H   0  0  0  0  0  0
    8.3255   -0.7051   26.7515 H   0  0  0  0  0  0
    7.0725   -1.7993   24.5548 H   0  0  0  0  0  0
    6.5011   -0.4549   22.2992 H   0  0  0  0  0  0
    5.4375    2.2035   23.4243 H   0  0  0  0  0  0
    3.9431    1.2502   21.6731 H   0  0  0  0  0  0
    4.7734    2.6385   21.0524 H   0  0  0  0  0  0
    7.3107    0.2904   21.1840 H   0  0  0  0  0  0
    8.1621   -1.0201   19.2732 H   0  0  0  0  0  0
    6.8000   -1.2376   17.2238 H   0  0  0  0  0  0
    4.5878   -0.1492   17.0688 H   0  0  0  0  0  0
    3.7242    1.1623   18.9734 H   0  0  0  0  0  0
    7.6451    1.9197   21.5026 H   0  0  0  0  0  0
    7.7718    2.4379   23.0567 H   0  0  0  0  0  0
    4.9524   -1.2635   23.4202 H   0  0  0  0  0  0
    6.9204    3.3197   21.9631 H   0  0  0  0  0  0
  1  2  1  0  0  0
  1 23  1  0  0  0
  1 24  1  0  0  0
  1 25  1  0  0  0
  2  3  1  0  0  0
  2  4  1  0  0  0
  2 26  1  0  0  0
  3 27  1  0  0  0
  3 28  1  0  0  0
  3 29  1  0  0  0
  4  5  1  0  0  0
  4 30  1  0  0  0
  4 31  1  0  0  0
  5  6  1  0  0  0
  5  9  1  0  0  0
  5 32  1  0  0  0
  6  7  2  0  0  0
  6  8  1  0  0  0
  9 10  1  0  0  0
  9 33  1  0  0  0
 10 11  2  0  0  0
 10 12  1  0  0  0
 12 13  1  0  0  0
 12 22  1  0  0  0
 12 34  1  0  0  0
 13 14  1  0  0  0
 13 21  1  0  0  0
 13 35  1  0  0  0
 14 15  1  0  0  0
 14 36  1  0  0  0
 14 37  1  0  0  0
 15 16  2  0  0  0
 15 20  1  0  0  0
 16 17  1  0  0  0
 16 38  1  0  0  0
 17 18  2  0  0  0
 17 39  1  0  0  0
 18 19  1  0  0  0
 18 40  1  0  0  0
 19 20  2  0  0  0
 19 41  1  0  0  0
 20 42  1  0  0  0
 21 43  1  0  0  0
 21 44  1  0  0  0
 21 46  1  0  0  0
 22 45  1  0  0  0
M  CHG  2   8  -1  21   1
M  END
> <s_m_entry_id>
71

> <s_m_entry_name>
Compounds-withfrags-for-validation-docking.1910

> <s_m_Source_Path>
/home/rodolpho/data/melina/maestro/glide-dock_XP_5RGK_M-PRO_VALIDATION

> <s_m_Source_File>
glide-dock_XP_5RGK_M-PRO_VALIDATION_pv.maegz

> <i_m_Source_File_Index>
71

> <CID>
Ubenimex

> <Potency>
12.83

> <pIC50>
4.89177

> <Source>
https://doi.org/10.1101/2020.03.23.004580

> <smiles>
C(C(C([H])([H])[H])(C(C(C(=O)O[H])(N(C(=O)C(C(C(C1=C([H])C([H])=C([H])C([H])=C1[H])([H])[H])(N([H])[H])[H])(O[H])[H])[H])[H])([H])[H])[H])([H])([H])[H]

> <Outcome>
Inactive

> <StandardizerResult>
Clear Stereo (ID: ClearStereo)
Wedge Clean (ID: WedgeClean)
Mesomerize (ID: Mesomerize)
Tautomerize (ID: Tautomerize)
Aromatize (ID: Aromatize)
Add Explicit Hydrogens (ID: AddExplicitH)
Neutralize (ID: Neutralize)
Clean 2D (ID: Clean2D)

> <chiral flag>
0

> <version>
0

> <i_lp_mmshare_version>
41011

> <i_f3d_flags>
0

> <s_epik_input>
W0NIM11bQ0hdKFtDSDNdKVtDSDJdW0NAQEhdKEMoPU8pW09IXSlbTkhdQyg9TylbQ0BASF0oW09IXSlbQ0BASF0oW05IMl0pW0NIMl1jMVtjSF1bY0hdW2NIXVtjSF1bY0hdMQ==

> <s_epik_cmdline>
J2VwaWtfcHl0aG9uJywgJy1waHQnLCAnMC41JywgJy1waCcsICc3LjQnLCAnLXRuJywgJzgnLCAnLW1hJywgJzIwMCcsICctaW1hZScsICc8aW5maWxlLm1hZT4nLCAnLW9tYWUnLCAnPG91dGZpbGUubWFlPic=

> <r_epik_Ionization_Penalty>
0.0844

> <r_epik_Ionization_Penalty_Charging>
0.0843

> <r_epik_Ionization_Penalty_Neutral>
1.0E-4

> <r_epik_State_Penalty>
0.0749

> <r_epik_Charging_Adjusted_Penalty>
0.15915

> <i_epik_Tot_Q>
0

> <i_epik_Tot_abs_Q>
2

> <s_lp_Force_Field>
OPLS3

> <r_lp_Energy>
23.8098

> <b_lp_Chiralities_Consistent>
1

> <s_lp_Variant>
ligprep_COVID_compounds-withfrags-smallmolecules-forvalidation.maegz:7-8

> <i_glide_original_lignum>
108

> <s_i_glide_gridfile>
glide-grid_5RGK_M-PRO_COVID

> <i_i_glide_lignum>
108

> <r_i_docking_score>
-6.00146418709586

> <r_i_glide_ligand_efficiency>
-0.272793826686175

> <r_i_glide_ligand_efficiency_sa>
-0.764379030747077

> <r_i_glide_ligand_efficiency_ln>
-1.46697675605133

> <r_glide_XP_GScore>
-6.07632008709586

> <r_i_glide_gscore>
-6.07632008709586

> <r_i_glide_evdw>
-16.0021858215332

> <r_i_glide_ecoul>
-17.7202396392822

> <r_i_glide_energy>
-33.7224254608154

> <r_i_glide_einternal>
8.89258670806885

> <r_i_glide_emodel>
-45.8032843862666

> <r_glide_XP_HBond>
-1.2448029138063

> <i_i_glide_confnum>
1

> <i_i_glide_posenum>
1

> <r_i_glide_eff_state_penalty>
0.0748559

> <i_glide_XP_PoseRank>
1

> <r_lp_tautomer_probability>


> <s_epik_Chemistry_Notes>


> <MW>


> <cLogP>


> <TPSA>


> <Rotatable Bonds>


> <Fraction sp3>


> <HBA>


> <HBD>


> <Structure ID>


> <Submission Fragments>


$$$$
ligprep_COVID_compounds-withfrags-smallmolecules-forvalidation.maegz:40
                    3D
 Structure written by MMmdl.
 79 83  0  0  1  0            999 V2000
    2.7875   -3.9095   28.8532 C   0  0  0  0  0  0
    3.2562   -4.4261   27.6165 O   0  0  0  0  0  0
    4.2761   -3.7541   26.9718 C   0  0  0  0  0  0
    4.8287   -2.5368   27.4365 C   0  0  0  0  0  0
    5.8777   -1.9168   26.7371 C   0  0  0  0  0  0
    6.3942   -2.4949   25.5572 C   0  0  0  0  0  0
    7.5150   -1.8937   24.8964 N   0  0  0  0  0  0
    8.7245   -2.5371   24.8604 C   0  0  0  0  0  0
    9.6763   -2.1795   24.1707 O   0  0  0  0  0  0
    8.8764   -3.8176   25.5827 C   0  0  0  0  0  0
    8.4103   -4.2518   26.7954 C   0  0  0  0  0  0
    8.6850   -5.6357   26.8476 C   0  0  0  0  0  0
    9.4772   -5.9033   25.7702 C   0  0  0  0  0  0
    9.6023   -4.8048   24.9842 O   0  0  0  0  0  0
    7.2357   -0.5252   24.3762 C   0  0  1  0  0  0
    8.3350    0.5690   24.4501 C   0  0  0  0  0  0
    9.4349    0.4515   23.9112 O   0  0  0  0  0  0
    7.9804    1.7054   25.0717 N   0  0  0  0  0  0
    8.8611    2.8617   25.1777 C   0  0  0  0  0  0
    8.9314    3.6588   23.8619 C   0  0  0  0  0  0
   10.2693    4.3537   23.7175 C   0  0  0  0  0  0
   10.4772    5.6345   24.2661 C   0  0  0  0  0  0
   11.7456    6.2370   24.1713 C   0  0  0  0  0  0
   12.7861    5.5983   23.4722 C   0  0  0  0  0  0
   12.5763    4.3288   22.9063 C   0  0  0  0  0  0
   13.5752    3.7118   22.2347 F   0  0  0  0  0  0
   11.3281    3.6977   23.0517 C   0  0  0  0  0  0
    6.7743   -0.5303   22.9375 C   0  0  0  0  0  0
    6.2752    0.6479   22.3221 C   0  0  0  0  0  0
    5.8624    0.6419   20.9796 C   0  0  0  0  0  0
    5.9465   -0.5622   20.2659 C   0  0  0  0  0  0
    6.3746   -1.7080   20.8236 N   0  0  0  0  0  0
    6.7742   -1.6831   22.1109 C   0  0  0  0  0  0
    5.8356   -3.7005   25.0810 C   0  0  0  0  0  0
    4.7808   -4.3290   25.7834 C   0  0  0  0  0  0
    4.2063   -5.5642   25.3887 N   0  0  0  0  0  0
    4.2148   -6.1805   24.1948 C   0  0  0  0  0  0
    4.7986   -5.7640   23.1948 O   0  0  0  0  0  0
    3.4489   -7.5087   24.0937 C   0  0  0  0  0  0
    2.8596   -8.0713   25.4168 C   0  0  0  0  0  0
    1.5372   -7.3944   25.8260 C   0  0  0  0  0  0
    0.5070   -7.4540   24.6893 C   0  0  0  0  0  0
    1.0643   -6.8279   23.4029 C   0  0  0  0  0  0
    2.3764   -7.5062   22.9779 C   0  0  0  0  0  0
    2.0153   -4.5678   29.2498 H   0  0  0  0  0  0
    2.3448   -2.9199   28.7305 H   0  0  0  0  0  0
    3.5866   -3.8603   29.5934 H   0  0  0  0  0  0
    4.4759   -2.0621   28.3389 H   0  0  0  0  0  0
    6.3019   -1.0007   27.1259 H   0  0  0  0  0  0
    7.8381   -3.6807   27.5109 H   0  0  0  0  0  0
    8.3748   -6.3434   27.6063 H   0  0  0  0  0  0
    9.9747   -6.7907   25.4124 H   0  0  0  0  0  0
    6.3953   -0.1638   24.9570 H   0  0  0  0  0  0
    7.0797    1.7301   25.5462 H   0  0  0  0  0  0
    8.5463    3.5051   25.9993 H   0  0  0  0  0  0
    9.8536    2.4964   25.4455 H   0  0  0  0  0  0
    8.7934    3.0121   22.9956 H   0  0  0  0  0  0
    8.1212    4.3868   23.8165 H   0  0  0  0  0  0
    9.6775    6.1426   24.7866 H   0  0  0  0  0  0
   11.9134    7.2108   24.6074 H   0  0  0  0  0  0
   13.7451    6.0822   23.3708 H   0  0  0  0  0  0
   11.1874    2.7100   22.6429 H   0  0  0  0  0  0
    6.2160    1.5748   22.8750 H   0  0  0  0  0  0
    5.5012    1.5460   20.5095 H   0  0  0  0  0  0
    5.6407   -0.6121   19.2314 H   0  0  0  0  0  0
    7.1185   -2.6378   22.4779 H   0  0  0  0  0  0
    6.2543   -4.1434   24.1908 H   0  0  0  0  0  0
    3.6571   -6.0159   26.1061 H   0  0  0  0  0  0
    4.2495   -8.1649   23.7712 H   0  0  0  0  0  0
    2.6777   -9.1409   25.2980 H   0  0  0  0  0  0
    3.5742   -7.9978   26.2370 H   0  0  0  0  0  0
    1.1337   -7.8859   26.7106 H   0  0  0  0  0  0
    1.7073   -6.3551   26.1093 H   0  0  0  0  0  0
    0.2274   -8.4922   24.5016 H   0  0  0  0  0  0
   -0.4065   -6.9376   24.9882 H   0  0  0  0  0  0
    0.3293   -6.9095   22.6022 H   0  0  0  0  0  0
    1.2318   -5.7639   23.5548 H   0  0  0  0  0  0
    2.7642   -7.0233   22.0803 H   0  0  0  0  0  0
    2.1645   -8.5358   22.6905 H   0  0  0  0  0  0
  1  2  1  0  0  0
  1 45  1  0  0  0
  1 46  1  0  0  0
  1 47  1  0  0  0
  2  3  1  0  0  0
  3  4  2  0  0  0
  3 35  1  0  0  0
  4  5  1  0  0  0
  4 48  1  0  0  0
  5  6  2  0  0  0
  5 49  1  0  0  0
  6  7  1  0  0  0
  6 34  1  0  0  0
  7  8  1  0  0  0
  7 15  1  0  0  0
  8  9  2  0  0  0
  8 10  1  0  0  0
 10 11  2  0  0  0
 10 14  1  0  0  0
 11 12  1  0  0  0
 11 50  1  0  0  0
 12 13  2  0  0  0
 12 51  1  0  0  0
 13 14  1  0  0  0
 13 52  1  0  0  0
 15 16  1  0  0  0
 15 28  1  0  0  0
 15 53  1  0  0  0
 16 17  2  0  0  0
 16 18  1  0  0  0
 18 19  1  0  0  0
 18 54  1  0  0  0
 19 20  1  0  0  0
 19 55  1  0  0  0
 19 56  1  0  0  0
 20 21  1  0  0  0
 20 57  1  0  0  0
 20 58  1  0  0  0
 21 22  2  0  0  0
 21 27  1  0  0  0
 22 23  1  0  0  0
 22 59  1  0  0  0
 23 24  2  0  0  0
 23 60  1  0  0  0
 24 25  1  0  0  0
 24 61  1  0  0  0
 25 26  1  0  0  0
 25 27  2  0  0  0
 27 62  1  0  0  0
 28 29  2  0  0  0
 28 33  1  0  0  0
 29 30  1  0  0  0
 29 63  1  0  0  0
 30 31  2  0  0  0
 30 64  1  0  0  0
 31 32  1  0  0  0
 31 65  1  0  0  0
 32 33  2  0  0  0
 33 66  1  0  0  0
 34 35  2  0  0  0
 34 67  1  0  0  0
 35 36  1  0  0  0
 36 37  1  0  0  0
 36 68  1  0  0  0
 37 38  2  0  0  0
 37 39  1  0  0  0
 39 40  1  0  0  0
 39 44  1  0  0  0
 39 69  1  0  0  0
 40 41  1  0  0  0
 40 70  1  0  0  0
 40 71  1  0  0  0
 41 42  1  0  0  0
 41 72  1  0  0  0
 41 73  1  0  0  0
 42 43  1  0  0  0
 42 74  1  0  0  0
 42 75  1  0  0  0
 43 44  1  0  0  0
 43 76  1  0  0  0
 43 77  1  0  0  0
 44 78  1  0  0  0
 44 79  1  0  0  0
M  END
> <s_m_entry_id>
72

> <s_m_entry_name>
Compounds-withfrags-for-validation-docking.1877

> <s_m_Source_Path>
/home/rodolpho/data/melina/maestro/glide-dock_XP_5RGK_M-PRO_VALIDATION

> <s_m_Source_File>
glide-dock_XP_5RGK_M-PRO_VALIDATION_pv.maegz

> <i_m_Source_File_Index>
72

> <CID>
ALP-POS-b0bc6a46-14

> <Potency>
62.7028

> <pIC50>
4.20271

> <Source>
Postera

> <smiles>
COc1ccc(N(C(=O)c2ccco2)C(C(=O)NCCc2cccc(F)c2)c2cccnc2)cc1NC(=O)C1CCCCC1

> <Outcome>
Inactive

> <StandardizerResult>
Clear Stereo (ID: ClearStereo)
Wedge Clean (ID: WedgeClean)
Mesomerize (ID: Mesomerize)
Tautomerize (ID: Tautomerize)
Aromatize (ID: Aromatize)
Add Explicit Hydrogens (ID: AddExplicitH)
Neutralize (ID: Neutralize)
Clean 2D (ID: Clean2D)

> <chiral flag>
0

> <version>
0

> <i_lp_mmshare_version>
41011

> <i_f3d_flags>
0

> <s_epik_input>
W0NIMl0xW0NIMl1bQ0gyXVtDSDJdW0NIMl1bQ0hdMUMoPU8pW05IXWMyW2NIXWMoW2NIXVtjSF1jMk9bQ0gzXSlOKEMoPU8pYzNbY0hdW2NIXVtjSF1vMylbQ0BIXShjNFtjSF1bY0hdW2NIXW5bY0hdNClDKD1PKVtOSF1bQ0gyXVtDSDJdYzVbY0hdW2NIXVtjSF1jKEYpW2NIXTU=

> <s_epik_cmdline>
J2VwaWtfcHl0aG9uJywgJy1waHQnLCAnMC41JywgJy1waCcsICc3LjQnLCAnLXRuJywgJzgnLCAnLW1hJywgJzIwMCcsICctaW1hZScsICc8aW5maWxlLm1hZT4nLCAnLW9tYWUnLCAnPG91dGZpbGUubWFlPic=

> <r_lp_tautomer_probability>
1.0

> <r_epik_Ionization_Penalty>
6.0E-4

> <r_epik_Ionization_Penalty_Charging>
0.0

> <r_epik_Ionization_Penalty_Neutral>
6.0E-4

> <r_epik_State_Penalty>
0.0

> <r_epik_Charging_Adjusted_Penalty>
0.0

> <i_epik_Tot_Q>
0

> <i_epik_Tot_abs_Q>
0

> <s_lp_Force_Field>
OPLS3

> <r_lp_Energy>
84.1028

> <b_lp_Chiralities_Consistent>
1

> <s_lp_Variant>
ligprep_COVID_compounds-withfrags-smallmolecules-forvalidation.maegz:40-1

> <i_glide_original_lignum>
185

> <s_i_glide_gridfile>
glide-grid_5RGK_M-PRO_COVID

> <i_i_glide_lignum>
185

> <r_i_docking_score>
-5.99864812108444

> <r_i_glide_ligand_efficiency>
-0.136332911842828

> <r_i_glide_ligand_efficiency_sa>
-0.48130266776737

> <r_i_glide_ligand_efficiency_ln>
-1.25384831708093

> <r_glide_XP_GScore>
-5.99864812108444

> <r_i_glide_gscore>
-5.99864812108444

> <r_i_glide_evdw>
-46.647777557373

> <r_i_glide_ecoul>
-10.0277051925659

> <r_i_glide_energy>
-56.675482749939

> <r_i_glide_einternal>
13.7948055267334

> <r_i_glide_emodel>
-67.2377825251693

> <r_glide_XP_HBond>
-1.21536469462587

> <i_i_glide_confnum>
4

> <i_i_glide_posenum>
36

> <r_i_glide_eff_state_penalty>
0.0

> <i_glide_XP_PoseRank>
1

> <MW>
598.26

> <cLogP>
6.09

> <TPSA>
113.77

> <Rotatable Bonds>
11

> <Fraction sp3>
0.29

> <HBA>
6

> <HBD>
2

> <s_epik_Chemistry_Notes>


> <Structure ID>


> <Submission Fragments>


$$$$
ligprep_COVID_compounds-withfrags-smallmolecules-forvalidation.maegz:4
                    3D
 Structure written by MMmdl.
 93 97  0  0  1  0            999 V2000
    3.7384    8.2843   21.7847 C   0  0  0  0  0  0
    5.2375    8.6316   21.7458 C   0  0  0  0  0  0
    5.7125    8.6410   20.2821 C   0  0  0  0  0  0
    5.4691   10.0314   22.3629 C   0  0  0  0  0  0
    5.9938    7.5772   22.4303 N   0  0  0  0  0  0
    6.2554    7.4193   23.7483 C   0  0  0  0  0  0
    5.8654    8.1910   24.6240 O   0  0  0  0  0  0
    7.0633    6.1771   24.1514 C   0  0  2  0  0  0
    8.4878    6.3051   23.5529 C   0  0  0  0  0  0
    9.2395    5.0601   23.6786 N   0  0  0  0  0  0
   10.6131    5.2980   23.2344 C   0  0  0  0  0  0
   11.5241    4.0785   23.1470 C   0  0  0  0  0  0
   12.7106    4.1684   22.3996 C   0  0  0  0  0  0
   13.5345    3.0374   22.3088 C   0  0  0  0  0  0
   13.1399    1.8486   22.9491 C   0  0  0  0  0  0
   12.0020    1.7449   23.6661 N   0  0  0  0  0  0
   11.2324    2.8428   23.7706 C   0  0  0  0  0  0
    8.5003    4.1119   22.8437 C   0  0  0  0  0  0
    7.2402    3.7470   23.6273 C   0  0  0  0  0  0
    6.3418    4.9190   23.7710 N   0  3  1  0  0  0
    5.1862    4.6459   24.6807 C   0  0  0  0  0  0
    3.8902    4.2365   23.9520 C   0  0  2  0  0  0
    3.8611    2.7668   23.4550 C   0  0  0  0  0  0
    3.5402    2.5095   21.9609 C   0  0  1  0  0  0
    3.6192    1.0073   21.6407 C   0  0  0  0  0  0
    4.6610    0.6369   20.6022 C   0  0  0  0  0  0
    4.6426    1.2218   19.3142 C   0  0  0  0  0  0
    5.5695    0.8142   18.3361 C   0  0  0  0  0  0
    6.5109   -0.1835   18.6392 C   0  0  0  0  0  0
    6.5325   -0.7639   19.9206 C   0  0  0  0  0  0
    5.6179   -0.3522   20.9035 C   0  0  0  0  0  0
    2.1363    3.0411   21.6061 C   0  0  0  0  0  0
    1.2192    2.8812   22.4074 O   0  0  0  0  0  0
    2.0176    3.7487   20.4747 N   0  0  0  0  0  0
    1.0588    4.8353   20.2495 C   0  0  2  0  0  0
   -0.3764    4.4614   19.9019 C   0  0  0  0  0  0
   -1.2376    3.5541   20.5594 C   0  0  0  0  0  0
   -2.5738    3.4460   20.1134 C   0  0  0  0  0  0
   -3.0322    4.2123   19.0217 C   0  0  0  0  0  0
   -2.1661    5.1108   18.3697 C   0  0  0  0  0  0
   -0.8404    5.2166   18.8328 C   0  0  0  0  0  0
    0.2096    6.1461   18.2955 C   0  0  0  0  0  0
    1.4924    5.7741   19.0823 C   0  0  2  0  0  0
    2.3750    5.1346   18.1705 O   0  0  0  0  0  0
    3.5760    5.2085   22.9714 O   0  0  0  0  0  0
    3.1474    9.0397   21.2687 H   0  0  0  0  0  0
    3.3672    8.2162   22.8081 H   0  0  0  0  0  0
    3.5477    7.3306   21.2949 H   0  0  0  0  0  0
    5.5546    7.6732   19.8061 H   0  0  0  0  0  0
    6.7737    8.8745   20.2074 H   0  0  0  0  0  0
    5.1748    9.3857   19.6949 H   0  0  0  0  0  0
    5.1165   10.8243   21.6992 H   0  0  0  0  0  0
    6.5247   10.2149   22.5703 H   0  0  0  0  0  0
    4.9270   10.1557   23.3019 H   0  0  0  0  0  0
    6.3487    6.8618   21.8159 H   0  0  0  0  0  0
    7.1841    6.1716   25.2370 H   0  0  0  0  0  0
    8.4567    6.6086   22.4999 H   0  0  0  0  0  0
    9.0181    7.0991   24.0847 H   0  0  0  0  0  0
   10.6213    5.8288   22.2828 H   0  0  0  0  0  0
   11.0716    5.9820   23.9449 H   0  0  0  0  0  0
   12.9881    5.0932   21.9124 H   0  0  0  0  0  0
   14.4659    3.0648   21.7681 H   0  0  0  0  0  0
   13.7604    0.9676   22.8891 H   0  0  0  0  0  0
   10.3553    2.7206   24.3865 H   0  0  0  0  0  0
    8.2692    4.5129   21.8581 H   0  0  0  0  0  0
    9.0515    3.1983   22.6526 H   0  0  0  0  0  0
    6.7279    2.9596   23.0800 H   0  0  0  0  0  0
    7.5125    3.3435   24.6025 H   0  0  0  0  0  0
    5.4512    3.9082   25.4389 H   0  0  0  0  0  0
    4.9428    5.5437   25.2531 H   0  0  0  0  0  0
    3.0899    4.3212   24.6913 H   0  0  0  0  0  0
    4.8012    2.2770   23.6997 H   0  0  0  0  0  0
    3.1340    2.2215   24.0635 H   0  0  0  0  0  0
    4.3176    3.0131   21.3825 H   0  0  0  0  0  0
    3.8198    0.4377   22.5526 H   0  0  0  0  0  0
    2.6620    0.6363   21.2848 H   0  0  0  0  0  0
    3.9096    1.9765   19.0653 H   0  0  0  0  0  0
    5.5387    1.2633   17.3548 H   0  0  0  0  0  0
    7.2140   -0.5255   17.8939 H   0  0  0  0  0  0
    7.2407   -1.5402   20.1529 H   0  0  0  0  0  0
    5.6345   -0.8229   21.8737 H   0  0  0  0  0  0
    2.8519    3.7994   19.8940 H   0  0  0  0  0  0
    1.0039    5.4277   21.1616 H   0  0  0  0  0  0
   -0.9140    2.9626   21.3994 H   0  0  0  0  0  0
   -3.2413    2.7558   20.6111 H   0  0  0  0  0  0
   -4.0553    4.1146   18.6914 H   0  0  0  0  0  0
   -2.5091    5.7065   17.5392 H   0  0  0  0  0  0
    0.3180    6.0426   17.2097 H   0  0  0  0  0  0
   -0.0883    7.1763   18.5135 H   0  0  0  0  0  0
    1.9992    6.6654   19.4534 H   0  0  0  0  0  0
    3.2460    5.0352   18.5710 H   0  0  0  0  0  0
    4.1343    5.0376   22.2163 H   0  0  0  0  0  0
    5.9749    5.0361   22.8210 H   0  0  0  0  0  0
  1  2  1  0  0  0
  1 46  1  0  0  0
  1 47  1  0  0  0
  1 48  1  0  0  0
  2  3  1  0  0  0
  2  4  1  0  0  0
  2  5  1  0  0  0
  3 49  1  0  0  0
  3 50  1  0  0  0
  3 51  1  0  0  0
  4 52  1  0  0  0
  4 53  1  0  0  0
  4 54  1  0  0  0
  5  6  1  0  0  0
  5 55  1  0  0  0
  6  7  2  0  0  0
  6  8  1  0  0  0
  8  9  1  0  0  0
  8 20  1  0  0  0
  8 56  1  0  0  0
  9 10  1  0  0  0
  9 57  1  0  0  0
  9 58  1  0  0  0
 10 11  1  0  0  0
 10 18  1  0  0  0
 11 12  1  0  0  0
 11 59  1  0  0  0
 11 60  1  0  0  0
 12 13  2  0  0  0
 12 17  1  0  0  0
 13 14  1  0  0  0
 13 61  1  0  0  0
 14 15  2  0  0  0
 14 62  1  0  0  0
 15 16  1  0  0  0
 15 63  1  0  0  0
 16 17  2  0  0  0
 17 64  1  0  0  0
 18 19  1  0  0  0
 18 65  1  0  0  0
 18 66  1  0  0  0
 19 20  1  0  0  0
 19 67  1  0  0  0
 19 68  1  0  0  0
 20 21  1  0  0  0
 20 93  1  0  0  0
 21 22  1  0  0  0
 21 69  1  0  0  0
 21 70  1  0  0  0
 22 23  1  0  0  0
 22 45  1  0  0  0
 22 71  1  0  0  0
 23 24  1  0  0  0
 23 72  1  0  0  0
 23 73  1  0  0  0
 24 25  1  0  0  0
 24 32  1  0  0  0
 24 74  1  0  0  0
 25 26  1  0  0  0
 25 75  1  0  0  0
 25 76  1  0  0  0
 26 27  2  0  0  0
 26 31  1  0  0  0
 27 28  1  0  0  0
 27 77  1  0  0  0
 28 29  2  0  0  0
 28 78  1  0  0  0
 29 30  1  0  0  0
 29 79  1  0  0  0
 30 31  2  0  0  0
 30 80  1  0  0  0
 31 81  1  0  0  0
 32 33  2  0  0  0
 32 34  1  0  0  0
 34 35  1  0  0  0
 34 82  1  0  0  0
 35 36  1  0  0  0
 35 43  1  0  0  0
 35 83  1  0  0  0
 36 37  2  0  0  0
 36 41  1  0  0  0
 37 38  1  0  0  0
 37 84  1  0  0  0
 38 39  2  0  0  0
 38 85  1  0  0  0
 39 40  1  0  0  0
 39 86  1  0  0  0
 40 41  2  0  0  0
 40 87  1  0  0  0
 41 42  1  0  0  0
 42 43  1  0  0  0
 42 88  1  0  0  0
 42 89  1  0  0  0
 43 44  1  0  0  0
 43 90  1  0  0  0
 44 91  1  0  0  0
 45 92  1  0  0  0
M  CHG  1  20   1
M  END
> <s_m_entry_id>
74

> <s_m_entry_name>
Compounds-withfrags-for-validation-docking.1913

> <s_m_Source_Path>
/home/rodolpho/data/melina/maestro/glide-dock_XP_5RGK_M-PRO_VALIDATION

> <s_m_Source_File>
glide-dock_XP_5RGK_M-PRO_VALIDATION_pv.maegz

> <i_m_Source_File_Index>
74

> <CID>
Indinavir

> <Potency>
43.13

> <pIC50>
4.36522

> <Source>
https://doi.org/10.1101/2020.03.23.004580

> <smiles>
C(C(C([H])([H])[H])(C([H])([H])[H])N(C(=O)C1(C([H])([H])N(C(C2=C([H])C([H])=C([H])N=C2[H])([H])[H])C([H])([H])C([H])([H])N1C(C(C(C(C(C1=C([H])C([H])=C([H])C([H])=C1[H])([H])[H])(C(=O)N(C1(C2=C(C(=C(C([H])=C2C([H])([H])C1(O[H])[H])[H])[H])[H])[H])[H])[H])([H])[H])(O[H])[H])([H])[H])[H])[H])([H])([H])[H]

> <Outcome>
Inactive

> <StandardizerResult>
Clear Stereo (ID: ClearStereo)
Wedge Clean (ID: WedgeClean)
Mesomerize (ID: Mesomerize)
Tautomerize (ID: Tautomerize)
Aromatize (ID: Aromatize)
Add Explicit Hydrogens (ID: AddExplicitH)
Neutralize (ID: Neutralize)
Clean 2D (ID: Clean2D)

> <chiral flag>
0

> <version>
0

> <i_lp_mmshare_version>
41011

> <i_f3d_flags>
0

> <s_epik_input>
W2NIXTFuW2NIXVtjSF1bY0hdYzFbQ0gyXU4oW0NIMl1bQ0BIXTJDKD1PKVtOSF1DKFtDSDNdKShbQ0gzXSlbQ0gzXSlbQ0gyXVtDSDJdTjJbQ0gyXVtDQEBIXShbT0hdKVtDSDJdW0NAQEhdKFtDSDJdYzNbY0hdW2NIXVtjSF1bY0hdW2NIXTMpQyg9TylbTkhdW0NASF00W0NAQEhdKFtPSF0pW0NIMl1jKGM0NSlbY0hdW2NIXVtjSF1bY0hdNQ==

> <s_epik_cmdline>
J2VwaWtfcHl0aG9uJywgJy1waHQnLCAnMC41JywgJy1waCcsICc3LjQnLCAnLXRuJywgJzgnLCAnLW1hJywgJzIwMCcsICctaW1hZScsICc8aW5maWxlLm1hZT4nLCAnLW9tYWUnLCAnPG91dGZpbGUubWFlPic=

> <r_epik_Ionization_Penalty>
0.3395

> <r_epik_Ionization_Penalty_Charging>
0.3352

> <r_epik_Ionization_Penalty_Neutral>
0.0044

> <r_epik_State_Penalty>
0.5191

> <r_epik_Charging_Adjusted_Penalty>
0.854238

> <i_epik_Tot_Q>
1

> <i_epik_Tot_abs_Q>
1

> <s_lp_Force_Field>
OPLS3

> <r_lp_Energy>
54.5975

> <b_lp_Chiralities_Consistent>
1

> <s_lp_Variant>
ligprep_COVID_compounds-withfrags-smallmolecules-forvalidation.maegz:4-19

> <i_glide_original_lignum>
38

> <s_i_glide_gridfile>
glide-grid_5RGK_M-PRO_COVID

> <i_i_glide_lignum>
38

> <r_i_docking_score>
-5.98482532262936

> <r_i_glide_ligand_efficiency>
-0.132996118280652

> <r_i_glide_ligand_efficiency_sa>
-0.47305300203537

> <r_i_glide_ligand_efficiency_ln>
-1.24511037239799

> <r_glide_XP_GScore>
-6.50389732262936

> <r_i_glide_gscore>
-6.50389732262936

> <r_i_glide_evdw>
-41.4111747741699

> <r_i_glide_ecoul>
-23.5204544067383

> <r_i_glide_energy>
-64.9316291809082

> <r_i_glide_einternal>
8.50253200531006

> <r_i_glide_emodel>
-96.0736302695658

> <r_glide_XP_HBond>
-2.0133135732715

> <i_i_glide_confnum>
2

> <i_i_glide_posenum>
3

> <r_i_glide_eff_state_penalty>
0.519072

> <i_glide_XP_PoseRank>
1

> <r_lp_tautomer_probability>


> <s_epik_Chemistry_Notes>


> <MW>


> <cLogP>


> <TPSA>


> <Rotatable Bonds>


> <Fraction sp3>


> <HBA>


> <HBD>


> <Structure ID>


> <Submission Fragments>


$$$$
ligprep_COVID_compounds-withfrags-smallmolecules-forvalidation.maegz:4
                    3D
 Structure written by MMmdl.
 93 97  0  0  1  0            999 V2000
    5.6862    8.3537   20.5654 C   0  0  0  0  0  0
    5.2417    8.4629   22.0346 C   0  0  0  0  0  0
    5.6905    9.8412   22.5710 C   0  0  0  0  0  0
    3.7103    8.3274   22.1237 C   0  0  0  0  0  0
    5.8529    7.3386   22.7556 N   0  0  0  0  0  0
    6.1127    7.2079   24.0742 C   0  0  0  0  0  0
    5.8615    8.0688   24.9146 O   0  0  0  0  0  0
    6.7147    5.8727   24.5471 C   0  0  2  0  0  0
    8.1501    5.7590   23.9641 C   0  0  0  0  0  0
    8.8081    4.4686   24.2275 N   0  0  0  0  0  0
   10.1176    4.5672   23.5724 C   0  0  0  0  0  0
   11.0343    3.3518   23.4726 C   0  0  0  0  0  0
   12.1692    3.4531   22.6430 C   0  0  0  0  0  0
   13.0598    2.3698   22.5709 C   0  0  0  0  0  0
   12.7743    1.2099   23.3112 C   0  0  0  0  0  0
   11.6940    1.0955   24.1082 N   0  0  0  0  0  0
   10.8563    2.1497   24.1930 C   0  0  0  0  0  0
    7.9304    3.4457   23.6563 C   0  0  0  0  0  0
    6.6285    3.4511   24.4774 C   0  0  0  0  0  0
    5.8782    4.6954   24.1708 N   0  3  1  0  0  0
    4.4738    4.7397   24.6887 C   0  0  0  0  0  0
    3.5291    3.6234   24.1685 C   0  0  1  0  0  0
    3.8081    3.1593   22.7229 C   0  0  0  0  0  0
    3.1688    1.8137   22.2741 C   0  0  2  0  0  0
    4.2813    0.7451   21.9484 C   0  0  0  0  0  0
    4.9017    0.6211   20.5569 C   0  0  0  0  0  0
    5.8761   -0.3819   20.3532 C   0  0  0  0  0  0
    6.4296   -0.5910   19.0758 C   0  0  0  0  0  0
    6.0135    0.1897   17.9859 C   0  0  0  0  0  0
    5.1059    1.2329   18.1899 C   0  0  0  0  0  0
    4.5525    1.4368   19.4628 C   0  0  0  0  0  0
    1.9646    1.9626   21.3144 C   0  0  0  0  0  0
    1.1677    1.0365   21.1762 O   0  0  0  0  0  0
    1.8332    3.1336   20.6715 N   0  0  0  0  0  0
    0.8745    3.4932   19.6418 C   0  0  1  0  0  0
   -0.4681    3.9062   20.1987 C   0  0  0  0  0  0
   -1.3870    3.1031   20.9021 C   0  0  0  0  0  0
   -2.5961    3.6878   21.3399 C   0  0  0  0  0  0
   -2.8725    5.0494   21.0739 C   0  0  0  0  0  0
   -1.9420    5.8421   20.3662 C   0  0  0  0  0  0
   -0.7447    5.2423   19.9350 C   0  0  0  0  0  0
    0.3701    5.9076   19.1719 C   0  0  0  0  0  0
    1.3768    4.7641   18.8850 C   0  0  2  0  0  0
    1.4344    4.5316   17.4912 O   0  0  0  0  0  0
    3.5749    2.5542   25.0813 O   0  0  0  0  0  0
    5.3006    9.1809   19.9678 H   0  0  0  0  0  0
    5.3302    7.4338   20.1042 H   0  0  0  0  0  0
    6.7733    8.3708   20.4788 H   0  0  0  0  0  0
    6.7739    9.9018   22.6724 H   0  0  0  0  0  0
    5.2541   10.0696   23.5422 H   0  0  0  0  0  0
    5.3792   10.6432   21.9019 H   0  0  0  0  0  0
    3.2104    9.1115   21.5545 H   0  0  0  0  0  0
    3.3643    8.4001   23.1561 H   0  0  0  0  0  0
    3.3717    7.3696   21.7287 H   0  0  0  0  0  0
    6.0634    6.5360   22.1709 H   0  0  0  0  0  0
    6.7861    5.8951   25.6365 H   0  0  0  0  0  0
    8.1157    5.9259   22.8843 H   0  0  0  0  0  0
    8.7623    6.5624   24.3789 H   0  0  0  0  0  0
    9.9858    4.9552   22.5708 H   0  0  0  0  0  0
   10.6920    5.3300   24.1027 H   0  0  0  0  0  0
   12.3673    4.3574   22.0834 H   0  0  0  0  0  0
   13.9520    2.4314   21.9675 H   0  0  0  0  0  0
   13.4420    0.3626   23.2758 H   0  0  0  0  0  0
   10.0471    2.0314   24.8954 H   0  0  0  0  0  0
    7.7358    3.6260   22.5972 H   0  0  0  0  0  0
    8.3703    2.4537   23.7183 H   0  0  0  0  0  0
    6.0704    2.5526   24.2307 H   0  0  0  0  0  0
    6.8374    3.3858   25.5447 H   0  0  0  0  0  0
    4.4787    4.7715   25.7793 H   0  0  0  0  0  0
    4.0162    5.6757   24.3728 H   0  0  0  0  0  0
    2.5052    3.9977   24.2171 H   0  0  0  0  0  0
    3.5745    4.0040   22.0770 H   0  0  0  0  0  0
    4.8684    3.0363   22.5705 H   0  0  0  0  0  0
    2.6805    1.3942   23.1501 H   0  0  0  0  0  0
    5.1198    0.9064   22.6272 H   0  0  0  0  0  0
    3.9752   -0.2565   22.2280 H   0  0  0  0  0  0
    6.1866   -1.0161   21.1718 H   0  0  0  0  0  0
    7.1620   -1.3639   18.9268 H   0  0  0  0  0  0
    6.3751   -0.0032   16.9923 H   0  0  0  0  0  0
    4.8054    1.8680   17.3701 H   0  0  0  0  0  0
    3.8701    2.2582   19.5598 H   0  0  0  0  0  0
    2.5636    3.8145   20.8263 H   0  0  0  0  0  0
    0.7482    2.6469   18.9709 H   0  0  0  0  0  0
   -1.1804    2.0622   21.1021 H   0  0  0  0  0  0
   -3.3156    3.0892   21.8800 H   0  0  0  0  0  0
   -3.8012    5.4861   21.4116 H   0  0  0  0  0  0
   -2.1466    6.8824   20.1615 H   0  0  0  0  0  0
   -0.0048    6.3822   18.2631 H   0  0  0  0  0  0
    0.8247    6.6742   19.7993 H   0  0  0  0  0  0
    2.3748    5.0614   19.2025 H   0  0  0  0  0  0
    2.1069    3.8856   17.3207 H   0  0  0  0  0  0
    2.7803    2.0482   24.9858 H   0  0  0  0  0  0
    5.7967    4.6969   23.1536 H   0  0  0  0  0  0
  1  2  1  0  0  0
  1 46  1  0  0  0
  1 47  1  0  0  0
  1 48  1  0  0  0
  2  3  1  0  0  0
  2  4  1  0  0  0
  2  5  1  0  0  0
  3 49  1  0  0  0
  3 50  1  0  0  0
  3 51  1  0  0  0
  4 52  1  0  0  0
  4 53  1  0  0  0
  4 54  1  0  0  0
  5  6  1  0  0  0
  5 55  1  0  0  0
  6  7  2  0  0  0
  6  8  1  0  0  0
  8  9  1  0  0  0
  8 20  1  0  0  0
  8 56  1  0  0  0
  9 10  1  0  0  0
  9 57  1  0  0  0
  9 58  1  0  0  0
 10 11  1  0  0  0
 10 18  1  0  0  0
 11 12  1  0  0  0
 11 59  1  0  0  0
 11 60  1  0  0  0
 12 13  2  0  0  0
 12 17  1  0  0  0
 13 14  1  0  0  0
 13 61  1  0  0  0
 14 15  2  0  0  0
 14 62  1  0  0  0
 15 16  1  0  0  0
 15 63  1  0  0  0
 16 17  2  0  0  0
 17 64  1  0  0  0
 18 19  1  0  0  0
 18 65  1  0  0  0
 18 66  1  0  0  0
 19 20  1  0  0  0
 19 67  1  0  0  0
 19 68  1  0  0  0
 20 21  1  0  0  0
 20 93  1  0  0  0
 21 22  1  0  0  0
 21 69  1  0  0  0
 21 70  1  0  0  0
 22 23  1  0  0  0
 22 45  1  0  0  0
 22 71  1  0  0  0
 23 24  1  0  0  0
 23 72  1  0  0  0
 23 73  1  0  0  0
 24 25  1  0  0  0
 24 32  1  0  0  0
 24 74  1  0  0  0
 25 26  1  0  0  0
 25 75  1  0  0  0
 25 76  1  0  0  0
 26 27  2  0  0  0
 26 31  1  0  0  0
 27 28  1  0  0  0
 27 77  1  0  0  0
 28 29  2  0  0  0
 28 78  1  0  0  0
 29 30  1  0  0  0
 29 79  1  0  0  0
 30 31  2  0  0  0
 30 80  1  0  0  0
 31 81  1  0  0  0
 32 33  2  0  0  0
 32 34  1  0  0  0
 34 35  1  0  0  0
 34 82  1  0  0  0
 35 36  1  0  0  0
 35 43  1  0  0  0
 35 83  1  0  0  0
 36 37  2  0  0  0
 36 41  1  0  0  0
 37 38  1  0  0  0
 37 84  1  0  0  0
 38 39  2  0  0  0
 38 85  1  0  0  0
 39 40  1  0  0  0
 39 86  1  0  0  0
 40 41  2  0  0  0
 40 87  1  0  0  0
 41 42  1  0  0  0
 42 43  1  0  0  0
 42 88  1  0  0  0
 42 89  1  0  0  0
 43 44  1  0  0  0
 43 90  1  0  0  0
 44 91  1  0  0  0
 45 92  1  0  0  0
M  CHG  1  20   1
M  END
> <s_m_entry_id>
75

> <s_m_entry_name>
Compounds-withfrags-for-validation-docking.1913

> <s_m_Source_Path>
/home/rodolpho/data/melina/maestro/glide-dock_XP_5RGK_M-PRO_VALIDATION

> <s_m_Source_File>
glide-dock_XP_5RGK_M-PRO_VALIDATION_pv.maegz

> <i_m_Source_File_Index>
75

> <CID>
Indinavir

> <Potency>
43.13

> <pIC50>
4.36522

> <Source>
https://doi.org/10.1101/2020.03.23.004580

> <smiles>
C(C(C([H])([H])[H])(C([H])([H])[H])N(C(=O)C1(C([H])([H])N(C(C2=C([H])C([H])=C([H])N=C2[H])([H])[H])C([H])([H])C([H])([H])N1C(C(C(C(C(C1=C([H])C([H])=C([H])C([H])=C1[H])([H])[H])(C(=O)N(C1(C2=C(C(=C(C([H])=C2C([H])([H])C1(O[H])[H])[H])[H])[H])[H])[H])[H])([H])[H])(O[H])[H])([H])[H])[H])[H])([H])([H])[H]

> <Outcome>
Inactive

> <StandardizerResult>
Clear Stereo (ID: ClearStereo)
Wedge Clean (ID: WedgeClean)
Mesomerize (ID: Mesomerize)
Tautomerize (ID: Tautomerize)
Aromatize (ID: Aromatize)
Add Explicit Hydrogens (ID: AddExplicitH)
Neutralize (ID: Neutralize)
Clean 2D (ID: Clean2D)

> <chiral flag>
0

> <version>
0

> <i_lp_mmshare_version>
41011

> <i_f3d_flags>
0

> <s_epik_input>
W2NIXTFuW2NIXVtjSF1bY0hdYzFbQ0gyXU4oW0NIMl1bQ0BIXTJDKD1PKVtOSF1DKFtDSDNdKShbQ0gzXSlbQ0gzXSlbQ0gyXVtDSDJdTjJbQ0gyXVtDQEhdKFtPSF0pW0NIMl1bQ0BIXShbQ0gyXWMzW2NIXVtjSF1bY0hdW2NIXVtjSF0zKUMoPU8pW05IXVtDQEBIXTRbQ0BASF0oW09IXSlbQ0gyXWMoYzQ1KVtjSF1bY0hdW2NIXVtjSF01

> <s_epik_cmdline>
J2VwaWtfcHl0aG9uJywgJy1waHQnLCAnMC41JywgJy1waCcsICc3LjQnLCAnLXRuJywgJzgnLCAnLW1hJywgJzIwMCcsICctaW1hZScsICc8aW5maWxlLm1hZT4nLCAnLW9tYWUnLCAnPG91dGZpbGUubWFlPic=

> <r_epik_Ionization_Penalty>
0.3395

> <r_epik_Ionization_Penalty_Charging>
0.3352

> <r_epik_Ionization_Penalty_Neutral>
0.0044

> <r_epik_State_Penalty>
0.5191

> <r_epik_Charging_Adjusted_Penalty>
0.854238

> <i_epik_Tot_Q>
1

> <i_epik_Tot_abs_Q>
1

> <s_lp_Force_Field>
OPLS3

> <r_lp_Energy>
55.068

> <b_lp_Chiralities_Consistent>
1

> <s_lp_Variant>
ligprep_COVID_compounds-withfrags-smallmolecules-forvalidation.maegz:4-23

> <i_glide_original_lignum>
42

> <s_i_glide_gridfile>
glide-grid_5RGK_M-PRO_COVID

> <i_i_glide_lignum>
42

> <r_i_docking_score>
-5.98326208964082

> <r_i_glide_ligand_efficiency>
-0.132961379769796

> <r_i_glide_ligand_efficiency_sa>
-0.472929440858854

> <r_i_glide_ligand_efficiency_ln>
-1.2447851502731

> <r_glide_XP_GScore>
-6.50233408964082

> <r_i_glide_gscore>
-6.50233408964082

> <r_i_glide_evdw>
-41.4404220581055

> <r_i_glide_ecoul>
-22.221321105957

> <r_i_glide_energy>
-63.6617431640625

> <r_i_glide_einternal>
18.9355697631836

> <r_i_glide_emodel>
-90.8082942540415

> <r_glide_XP_HBond>
-2.54954364278598

> <i_i_glide_confnum>
1

> <i_i_glide_posenum>
19

> <r_i_glide_eff_state_penalty>
0.519072

> <i_glide_XP_PoseRank>
1

> <r_lp_tautomer_probability>


> <s_epik_Chemistry_Notes>


> <MW>


> <cLogP>


> <TPSA>


> <Rotatable Bonds>


> <Fraction sp3>


> <HBA>


> <HBD>


> <Structure ID>


> <Submission Fragments>


$$$$
ligprep_COVID_compounds-withfrags-smallmolecules-forvalidation.maegz:47
                    3D
 Structure written by MMmdl.
 76 79  0  0  1  0            999 V2000
    4.0207    0.5301   30.0301 C   0  0  0  0  0  0
    3.4701   -0.2127   28.8024 C   0  0  1  0  0  0
    4.3856   -1.3876   28.4131 C   0  0  0  0  0  0
    3.8765   -2.1531   27.1744 C   0  0  2  0  0  0
    4.1578   -1.4287   25.8371 C   0  0  0  0  0  0
    5.6439   -1.4826   25.4050 C   0  0  0  0  0  0
    6.0174   -1.0006   24.0468 N   0  0  0  0  0  0
    5.2400   -0.1634   23.2890 C   0  0  0  0  0  0
    4.3372    0.5239   23.7692 O   0  0  0  0  0  0
    5.4795   -0.0273   21.8271 C   0  0  0  0  0  0
    5.3242    1.0605   21.0086 C   0  0  0  0  0  0
    5.6452    0.6359   19.6895 C   0  0  0  0  0  0
    5.9727   -0.6847   19.7891 C   0  0  0  0  0  0
    5.8420   -1.1083   21.0739 O   0  0  0  0  0  0
    7.3910   -1.3712   23.6085 C   0  0  1  0  0  0
    8.5358   -0.6080   24.3154 C   0  0  0  0  0  0
    9.7005   -0.9839   24.1728 O   0  0  0  0  0  0
    8.2094    0.4908   25.0075 N   0  0  0  0  0  0
    9.1333    1.4568   25.5771 C   0  0  0  0  0  0
    9.3631    2.6530   24.6235 C   0  0  0  0  0  0
   10.7083    2.7312   23.9063 C   0  0  0  0  0  0
   11.1111    3.9739   23.3689 C   0  0  0  0  0  0
   12.3382    4.1007   22.6904 C   0  0  0  0  0  0
   13.1754    2.9798   22.5466 C   0  0  0  0  0  0
   12.7877    1.7377   23.0800 C   0  0  0  0  0  0
   13.5940    0.6578   22.9532 F   0  0  0  0  0  0
   11.5718    1.6219   23.7690 C   0  0  0  0  0  0
    7.6605   -2.8528   23.7089 C   0  0  0  0  0  0
    8.2657   -3.4994   24.8198 C   0  0  0  0  0  0
    8.5520   -4.8737   24.7731 C   0  0  0  0  0  0
    8.2043   -5.5790   23.6139 C   0  0  0  0  0  0
    7.5721   -5.0188   22.5710 N   0  0  0  0  0  0
    7.3174   -3.6959   22.6280 C   0  0  0  0  0  0
    2.3994   -2.5773   27.3621 C   0  0  0  0  0  0
    1.4195   -1.4765   27.8490 C   0  0  0  0  0  0
    1.0260   -0.5072   26.7120 C   0  0  0  0  0  0
    0.1200   -2.1618   28.3216 C   0  0  0  0  0  0
    2.0341   -0.7135   29.0511 C   0  0  0  0  0  0
    4.0803   -0.1273   30.8988 H   0  0  0  0  0  0
    3.3858    1.3769   30.2953 H   0  0  0  0  0  0
    5.0221    0.9157   29.8372 H   0  0  0  0  0  0
    3.4503    0.5049   27.9834 H   0  0  0  0  0  0
    5.4043   -1.0343   28.2544 H   0  0  0  0  0  0
    4.4436   -2.0793   29.2524 H   0  0  0  0  0  0
    4.4374   -3.0864   27.1301 H   0  0  0  0  0  0
    3.5544   -1.8687   25.0489 H   0  0  0  0  0  0
    3.8335   -0.3996   25.9269 H   0  0  0  0  0  0
    6.2589   -0.9657   26.1401 H   0  0  0  0  0  0
    5.9150   -2.5320   25.4871 H   0  0  0  0  0  0
    5.0202    2.0509   21.3189 H   0  0  0  0  0  0
    5.6409    1.2275   18.7858 H   0  0  0  0  0  0
    6.2784   -1.4431   19.0828 H   0  0  0  0  0  0
    7.5749   -1.0903   22.5783 H   0  0  0  0  0  0
    7.2231    0.6849   25.1435 H   0  0  0  0  0  0
    8.6223    1.8264   26.4648 H   0  0  0  0  0  0
   10.0546    0.9980   25.9345 H   0  0  0  0  0  0
    8.5690    2.7084   23.8748 H   0  0  0  0  0  0
    9.2645    3.5663   25.2109 H   0  0  0  0  0  0
   10.4669    4.8354   23.4594 H   0  0  0  0  0  0
   12.6338    5.0534   22.2741 H   0  0  0  0  0  0
   14.1172    3.0643   22.0298 H   0  0  0  0  0  0
   11.3384    0.6638   24.1929 H   0  0  0  0  0  0
    8.5384   -2.9423   25.7043 H   0  0  0  0  0  0
    9.0437   -5.3739   25.5957 H   0  0  0  0  0  0
    8.4498   -6.6191   23.5040 H   0  0  0  0  0  0
    6.8364   -3.2857   21.7539 H   0  0  0  0  0  0
    2.0231   -3.0438   26.4503 H   0  0  0  0  0  0
    2.3998   -3.3764   28.1039 H   0  0  0  0  0  0
    0.2123    0.1504   27.0193 H   0  0  0  0  0  0
    0.6853   -1.0489   25.8301 H   0  0  0  0  0  0
    1.8370    0.1441   26.3994 H   0  0  0  0  0  0
   -0.6012   -1.4337   28.6948 H   0  0  0  0  0  0
    0.3085   -2.8713   29.1280 H   0  0  0  0  0  0
   -0.3584   -2.7097   27.5090 H   0  0  0  0  0  0
    2.0481   -1.3727   29.9213 H   0  0  0  0  0  0
    1.3899    0.1242   29.3240 H   0  0  0  0  0  0
  1  2  1  0  0  0
  1 39  1  0  0  0
  1 40  1  0  0  0
  1 41  1  0  0  0
  2  3  1  0  0  0
  2 38  1  0  0  0
  2 42  1  0  0  0
  3  4  1  0  0  0
  3 43  1  0  0  0
  3 44  1  0  0  0
  4  5  1  0  0  0
  4 34  1  0  0  0
  4 45  1  0  0  0
  5  6  1  0  0  0
  5 46  1  0  0  0
  5 47  1  0  0  0
  6  7  1  0  0  0
  6 48  1  0  0  0
  6 49  1  0  0  0
  7  8  1  0  0  0
  7 15  1  0  0  0
  8  9  2  0  0  0
  8 10  1  0  0  0
 10 11  2  0  0  0
 10 14  1  0  0  0
 11 12  1  0  0  0
 11 50  1  0  0  0
 12 13  2  0  0  0
 12 51  1  0  0  0
 13 14  1  0  0  0
 13 52  1  0  0  0
 15 16  1  0  0  0
 15 28  1  0  0  0
 15 53  1  0  0  0
 16 17  2  0  0  0
 16 18  1  0  0  0
 18 19  1  0  0  0
 18 54  1  0  0  0
 19 20  1  0  0  0
 19 55  1  0  0  0
 19 56  1  0  0  0
 20 21  1  0  0  0
 20 57  1  0  0  0
 20 58  1  0  0  0
 21 22  2  0  0  0
 21 27  1  0  0  0
 22 23  1  0  0  0
 22 59  1  0  0  0
 23 24  2  0  0  0
 23 60  1  0  0  0
 24 25  1  0  0  0
 24 61  1  0  0  0
 25 26  1  0  0  0
 25 27  2  0  0  0
 27 62  1  0  0  0
 28 29  2  0  0  0
 28 33  1  0  0  0
 29 30  1  0  0  0
 29 63  1  0  0  0
 30 31  2  0  0  0
 30 64  1  0  0  0
 31 32  1  0  0  0
 31 65  1  0  0  0
 32 33  2  0  0  0
 33 66  1  0  0  0
 34 35  1  0  0  0
 34 67  1  0  0  0
 34 68  1  0  0  0
 35 36  1  0  0  0
 35 37  1  0  0  0
 35 38  1  0  0  0
 36 69  1  0  0  0
 36 70  1  0  0  0
 36 71  1  0  0  0
 37 72  1  0  0  0
 37 73  1  0  0  0
 37 74  1  0  0  0
 38 75  1  0  0  0
 38 76  1  0  0  0
M  END
> <s_m_entry_id>
77

> <s_m_entry_name>
Compounds-withfrags-for-validation-docking.1870

> <s_m_Source_Path>
/home/rodolpho/data/melina/maestro/glide-dock_XP_5RGK_M-PRO_VALIDATION

> <s_m_Source_File>
glide-dock_XP_5RGK_M-PRO_VALIDATION_pv.maegz

> <i_m_Source_File_Index>
77

> <CID>
ALP-POS-b0bc6a46-1

> <Potency>
99.5

> <pIC50>
4.00218

> <Source>
Postera

> <smiles>
CC1CC(CCN(C(=O)c2ccco2)C(C(=O)NCCc2cccc(F)c2)c2cccnc2)CC(C)(C)C1

> <Outcome>
Inactive

> <StandardizerResult>
Clear Stereo (ID: ClearStereo)
Wedge Clean (ID: WedgeClean)
Mesomerize (ID: Mesomerize)
Tautomerize (ID: Tautomerize)
Aromatize (ID: Aromatize)
Add Explicit Hydrogens (ID: AddExplicitH)
Neutralize (ID: Neutralize)
Clean 2D (ID: Clean2D)

> <chiral flag>
0

> <version>
0

> <i_lp_mmshare_version>
41011

> <i_f3d_flags>
0

> <s_epik_input>
W0NIM11bQ0BIXShbQ0gyXTEpW0NIMl1bQ0BASF0oW0NIMl1DMShbQ0gzXSlbQ0gzXSlbQ0gyXVtDSDJdTihDKD1PKWMyW2NIXVtjSF1bY0hdbzIpW0NASF0oYzNbY0hdW2NIXVtjSF1uW2NIXTMpQyg9TylbTkhdW0NIMl1bQ0gyXWM0W2NIXVtjSF1bY0hdYyhGKVtjSF00

> <s_epik_cmdline>
J2VwaWtfcHl0aG9uJywgJy1waHQnLCAnMC41JywgJy1waCcsICc3LjQnLCAnLXRuJywgJzgnLCAnLW1hJywgJzIwMCcsICctaW1hZScsICc8aW5maWxlLm1hZT4nLCAnLW9tYWUnLCAnPG91dGZpbGUubWFlPic=

> <r_lp_tautomer_probability>
1.0

> <r_epik_Ionization_Penalty>
8.0E-4

> <r_epik_Ionization_Penalty_Charging>
0.0

> <r_epik_Ionization_Penalty_Neutral>
8.0E-4

> <r_epik_State_Penalty>
0.0

> <r_epik_Charging_Adjusted_Penalty>
0.0

> <i_epik_Tot_Q>
0

> <i_epik_Tot_abs_Q>
0

> <s_lp_Force_Field>
OPLS3

> <r_lp_Energy>
61.9005

> <b_lp_Chiralities_Consistent>
1

> <s_lp_Variant>
ligprep_COVID_compounds-withfrags-smallmolecules-forvalidation.maegz:47-4

> <i_glide_original_lignum>
208

> <s_i_glide_gridfile>
glide-grid_5RGK_M-PRO_COVID

> <i_i_glide_lignum>
208

> <r_i_docking_score>
-5.96814710981517

> <r_i_glide_ligand_efficiency>
-0.157056502889873

> <r_i_glide_ligand_efficiency_sa>
-0.528020099553363

> <r_i_glide_ligand_efficiency_ln>
-1.2869080819767

> <r_glide_XP_GScore>
-5.96814710981517

> <r_i_glide_gscore>
-5.96814710981517

> <r_i_glide_evdw>
-40.2773170471191

> <r_i_glide_ecoul>
-11.5597648620605

> <r_i_glide_energy>
-51.8370819091797

> <r_i_glide_einternal>
9.23281955718994

> <r_i_glide_emodel>
-67.7889745825375

> <r_glide_XP_HBond>
-1.44656555006934

> <i_i_glide_confnum>
1

> <i_i_glide_posenum>
26

> <r_i_glide_eff_state_penalty>
0.0

> <i_glide_XP_PoseRank>
1

> <MW>
519.29

> <cLogP>
6.21

> <TPSA>
75.44

> <Rotatable Bonds>
10

> <Fraction sp3>
0.45

> <HBA>
4

> <HBD>
1

> <s_epik_Chemistry_Notes>


> <Structure ID>


> <Submission Fragments>


$$$$
ligprep_COVID_compounds-withfrags-smallmolecules-forvalidation.maegz:88
                    3D
 Structure written by MMmdl.
 47 49  0  0  1  0            999 V2000
   10.4979    6.0494   24.6139 C   0  0  0  0  0  0
   11.5418    5.3113   23.7844 C   0  0  0  0  0  0
   12.7382    5.9621   23.4600 C   0  0  0  0  0  0
   13.6899    5.2863   22.6979 C   0  0  0  0  0  0
   13.5090    4.0216   22.2460 N   0  0  0  0  0  0
   12.3488    3.3955   22.5650 C   0  0  0  0  0  0
   11.3374    3.9901   23.3410 C   0  0  0  0  0  0
   10.1230    3.3440   23.6505 N   0  0  0  0  0  0
    9.9382    2.1939   24.3338 C   0  0  0  0  0  0
   10.8211    1.3685   24.5733 O   0  0  0  0  0  0
    8.5173    1.9475   24.8604 C   0  0  0  0  0  0
    8.0630    0.5169   24.5944 C   0  0  0  0  0  0
    8.3109   -0.4896   25.5321 C   0  0  0  0  0  0
    7.9094   -1.8000   25.2770 C   0  0  0  0  0  0
    8.2166   -3.0375   26.4403 Cl  0  0  0  0  0  0
    7.2614   -2.1126   24.0818 C   0  0  0  0  0  0
    7.0136   -1.1156   23.1266 C   0  0  0  0  0  0
    6.3702   -1.3609   21.9011 N   0  0  0  0  0  0
    6.3084   -0.3648   20.8311 C   0  0  2  0  0  0
    5.0011    0.4526   20.8298 C   0  0  0  0  0  0
    4.7929    0.9200   19.3772 C   0  0  0  0  0  0
    5.8681    0.1979   18.5468 C   0  0  0  0  0  0
    5.3911   -0.1972   17.3639 F   0  0  0  0  0  0
    6.8855    1.0377   18.3367 F   0  0  0  0  0  0
    6.3652   -0.9737   19.4137 C   0  0  2  0  0  0
    5.5810   -2.1484   19.2448 O   0  0  0  0  0  0
    7.4187    0.1952   23.3949 C   0  0  0  0  0  0
   10.2665    5.4892   25.5205 H   0  0  0  0  0  0
    9.5777    6.1740   24.0420 H   0  0  0  0  0  0
   10.8411    7.0401   24.9151 H   0  0  0  0  0  0
   12.9306    6.9726   23.7898 H   0  0  0  0  0  0
   14.6220    5.7631   22.4327 H   0  0  0  0  0  0
   12.2458    2.4019   22.1559 H   0  0  0  0  0  0
    9.2928    3.8359   23.3542 H   0  0  0  0  0  0
    8.5045    2.1494   25.9325 H   0  0  0  0  0  0
    7.8074    2.6452   24.4109 H   0  0  0  0  0  0
    8.8184   -0.2549   26.4569 H   0  0  0  0  0  0
    6.9623   -3.1358   23.9123 H   0  0  0  0  0  0
    5.6561   -2.0757   21.8928 H   0  0  0  0  0  0
    7.1438    0.3325   20.9149 H   0  0  0  0  0  0
    4.1578   -0.1721   21.1313 H   0  0  0  0  0  0
    5.0447    1.2905   21.5265 H   0  0  0  0  0  0
    3.7909    0.6491   19.0407 H   0  0  0  0  0  0
    4.8773    2.0040   19.2856 H   0  0  0  0  0  0
    7.3963   -1.2258   19.1602 H   0  0  0  0  0  0
    5.9282   -2.8320   19.8231 H   0  0  0  0  0  0
    7.2367    0.9738   22.6672 H   0  0  0  0  0  0
  1  2  1  0  0  0
  1 28  1  0  0  0
  1 29  1  0  0  0
  1 30  1  0  0  0
  2  3  2  0  0  0
  2  7  1  0  0  0
  3  4  1  0  0  0
  3 31  1  0  0  0
  4  5  2  0  0  0
  4 32  1  0  0  0
  5  6  1  0  0  0
  6  7  2  0  0  0
  6 33  1  0  0  0
  7  8  1  0  0  0
  8  9  1  0  0  0
  8 34  1  0  0  0
  9 10  2  0  0  0
  9 11  1  0  0  0
 11 12  1  0  0  0
 11 35  1  0  0  0
 11 36  1  0  0  0
 12 13  2  0  0  0
 12 27  1  0  0  0
 13 14  1  0  0  0
 13 37  1  0  0  0
 14 15  1  0  0  0
 14 16  2  0  0  0
 16 17  1  0  0  0
 16 38  1  0  0  0
 17 18  1  0  0  0
 17 27  2  0  0  0
 18 19  1  0  0  0
 18 39  1  0  0  0
 19 20  1  0  0  0
 19 25  1  0  0  0
 19 40  1  0  0  0
 20 21  1  0  0  0
 20 41  1  0  0  0
 20 42  1  0  0  0
 21 22  1  0  0  0
 21 43  1  0  0  0
 21 44  1  0  0  0
 22 23  1  0  0  0
 22 24  1  0  0  0
 22 25  1  0  0  0
 25 26  1  0  0  0
 25 45  1  0  0  0
 26 46  1  0  0  0
 27 47  1  0  0  0
M  END
> <s_m_entry_id>
83

> <s_m_entry_name>
Compounds-withfrags-for-validation-docking.1829

> <s_m_Source_Path>
/home/rodolpho/data/melina/maestro/glide-dock_XP_5RGK_M-PRO_VALIDATION

> <s_m_Source_File>
glide-dock_XP_5RGK_M-PRO_VALIDATION_pv.maegz

> <i_m_Source_File_Index>
83

> <CID>
MAT-POS-044491d2-2

> <Potency>
23.0318

> <pIC50>
4.63767

> <Source>
Postera

> <smiles>
Cc1ccncc1NC(=O)Cc1cc(Cl)cc(NC2CCC(F)(F)C2O)c1

> <Outcome>
Inactive

> <StandardizerResult>
Clear Stereo (ID: ClearStereo)
Wedge Clean (ID: WedgeClean)
Mesomerize (ID: Mesomerize)
Tautomerize (ID: Tautomerize)
Aromatize (ID: Aromatize)
Add Explicit Hydrogens (ID: AddExplicitH)
Neutralize (ID: Neutralize)
Clean 2D (ID: Clean2D)

> <chiral flag>
0

> <version>
0

> <i_lp_mmshare_version>
41011

> <i_f3d_flags>
0

> <s_epik_input>
W0NIM11jMVtjSF1bY0hdbltjSF1jMVtOSF1DKD1PKVtDSDJdYzJbY0hdYyhDbClbY0hdYyhbY0hdMilbTkhdW0NAQEhdKFtDQEhdM1tPSF0pW0NIMl1bQ0gyXUMzKEYpRg==

> <s_epik_cmdline>
J2VwaWtfcHl0aG9uJywgJy1waHQnLCAnMC41JywgJy1waCcsICc3LjQnLCAnLXRuJywgJzgnLCAnLW1hJywgJzIwMCcsICctaW1hZScsICc8aW5maWxlLm1hZT4nLCAnLW9tYWUnLCAnPG91dGZpbGUubWFlPic=

> <r_lp_tautomer_probability>
1.0

> <r_epik_Ionization_Penalty>
0.0032

> <r_epik_Ionization_Penalty_Charging>
0.0

> <r_epik_Ionization_Penalty_Neutral>
0.0032

> <r_epik_State_Penalty>
0.0

> <r_epik_Charging_Adjusted_Penalty>
0.0

> <i_epik_Tot_Q>
0

> <i_epik_Tot_abs_Q>
0

> <s_lp_Force_Field>
OPLS3

> <r_lp_Energy>
47.9314

> <b_lp_Chiralities_Consistent>
1

> <s_lp_Variant>
ligprep_COVID_compounds-withfrags-smallmolecules-forvalidation.maegz:88-1

> <i_glide_original_lignum>
269

> <s_i_glide_gridfile>
glide-grid_5RGK_M-PRO_COVID

> <i_i_glide_lignum>
269

> <r_i_docking_score>
-5.92308482011049

> <r_i_glide_ligand_efficiency>
-0.219373511855944

> <r_i_glide_ligand_efficiency_sa>
-0.658120534844812

> <r_i_glide_ligand_efficiency_ln>
-1.37879649643672

> <r_glide_XP_GScore>
-5.92308482011049

> <r_i_glide_gscore>
-5.92308482011049

> <r_i_glide_evdw>
-35.7341918945312

> <r_i_glide_ecoul>
-8.70100212097168

> <r_i_glide_energy>
-44.4351940155029

> <r_i_glide_einternal>
4.96629428863525

> <r_i_glide_emodel>
-64.9809956584023

> <r_glide_XP_HBond>
-1.0556113168121

> <i_i_glide_confnum>
1

> <i_i_glide_posenum>
3

> <r_i_glide_eff_state_penalty>
0.0

> <i_glide_XP_PoseRank>
1

> <MW>
395.12

> <cLogP>
3.8

> <TPSA>
74.25

> <Rotatable Bonds>
5

> <Fraction sp3>
0.37

> <HBA>
4

> <HBD>
3

> <s_epik_Chemistry_Notes>


> <Structure ID>


> <Submission Fragments>


$$$$
ligprep_COVID_compounds-withfrags-smallmolecules-forvalidation.maegz:57
                    3D
 Structure written by MMmdl.
 41 44  0  0  1  0            999 V2000
    6.4100    1.4976   16.9056 C   0  0  0  0  0  0
    5.9749    0.2330   17.3708 O   0  0  0  0  0  0
    5.8300    0.1075   18.7289 C   0  0  0  0  0  0
    5.9759   -1.1760   19.2845 C   0  0  0  0  0  0
    5.9750   -1.3633   20.6807 C   0  0  0  0  0  0
    5.7732   -0.2719   21.5549 C   0  0  0  0  0  0
    5.6932   -0.0384   22.9649 C   0  0  0  0  0  0
    5.7505   -1.0969   23.8786 N   0  0  0  0  0  0
    6.9119   -1.6289   24.2664 C   0  0  0  0  0  0
    7.8547   -0.9645   24.6970 O   0  0  0  0  0  0
    6.9911   -3.1613   24.1320 C   0  0  1  0  0  0
    8.0707   -3.5722   23.1192 C   0  0  0  0  0  0
    9.4605   -3.4992   23.7702 C   0  0  0  0  0  0
    9.5548   -4.4183   24.8467 O   0  0  0  0  0  0
    8.4860   -4.4772   25.7133 C   0  0  0  0  0  0
    8.6400   -5.2570   26.8686 C   0  0  0  0  0  0
    7.5752   -5.4184   27.7708 C   0  0  0  0  0  0
    6.3481   -4.7734   27.5387 C   0  0  0  0  0  0
    5.0469   -4.9620   28.6547 Cl  0  0  0  0  0  0
    6.1786   -3.9897   26.3830 C   0  0  0  0  0  0
    7.2361   -3.8551   25.4581 C   0  0  0  0  0  0
    5.4610    1.2133   23.2661 N   0  0  0  0  0  0
    5.4034    1.8364   22.0612 N   0  0  0  0  0  0
    5.5683    1.0010   20.9737 C   0  0  0  0  0  0
    5.5748    1.2001   19.5861 C   0  0  0  0  0  0
    6.7737    1.4363   15.8805 H   0  0  0  0  0  0
    7.2677    1.8362   17.4830 H   0  0  0  0  0  0
    5.6096    2.2369   16.9432 H   0  0  0  0  0  0
    6.1313   -2.0215   18.6303 H   0  0  0  0  0  0
    6.1077   -2.3569   21.0810 H   0  0  0  0  0  0
    5.0633   -1.8145   23.6662 H   0  0  0  0  0  0
    6.0263   -3.5277   23.7703 H   0  0  0  0  0  0
    7.8915   -4.5976   22.7935 H   0  0  0  0  0  0
    8.0127   -2.9640   22.2185 H   0  0  0  0  0  0
   10.2283   -3.7373   23.0428 H   0  0  0  0  0  0
    9.7058   -2.5019   24.1297 H   0  0  0  0  0  0
    9.5785   -5.7591   27.0391 H   0  0  0  0  0  0
    7.7055   -6.0470   28.6389 H   0  0  0  0  0  0
    5.2231   -3.5245   26.1886 H   0  0  0  0  0  0
    5.3122    2.8526   21.9946 H   0  0  0  0  0  0
    5.4114    2.1998   19.2086 H   0  0  0  0  0  0
  1  2  1  0  0  0
  1 26  1  0  0  0
  1 27  1  0  0  0
  1 28  1  0  0  0
  2  3  1  0  0  0
  3 25  2  0  0  0
  3  4  1  0  0  0
  4 29  1  0  0  0
  4  5  2  0  0  0
  5 30  1  0  0  0
  5  6  1  0  0  0
  6 24  2  0  0  0
  6  7  1  0  0  0
  7 22  2  0  0  0
  7  8  1  0  0  0
  8  9  1  0  0  0
  8 31  1  0  0  0
  9 10  2  0  0  0
  9 11  1  0  0  0
 11 12  1  0  0  0
 11 21  1  0  0  0
 11 32  1  0  0  0
 12 13  1  0  0  0
 12 33  1  0  0  0
 12 34  1  0  0  0
 13 14  1  0  0  0
 13 35  1  0  0  0
 13 36  1  0  0  0
 14 15  1  0  0  0
 15 16  2  0  0  0
 15 21  1  0  0  0
 16 17  1  0  0  0
 16 37  1  0  0  0
 17 18  2  0  0  0
 17 38  1  0  0  0
 18 19  1  0  0  0
 18 20  1  0  0  0
 20 21  2  0  0  0
 20 39  1  0  0  0
 22 23  1  0  0  0
 23 40  1  0  0  0
 23 24  1  0  0  0
 24 25  1  0  0  0
 25 41  1  0  0  0
M  END
> <s_m_entry_id>
90

> <s_m_entry_name>
Compounds-withfrags-for-validation-docking.1860

> <s_m_Source_Path>
/home/rodolpho/data/melina/maestro/glide-dock_XP_5RGK_M-PRO_VALIDATION

> <s_m_Source_File>
glide-dock_XP_5RGK_M-PRO_VALIDATION_pv.maegz

> <i_m_Source_File_Index>
90

> <CID>
JAG-UCB-52b62a6f-12

> <Potency>
99.5

> <pIC50>
4.00218

> <Source>
Postera

> <smiles>
COc1ccc2c(NC(=O)C3CCOc4ccc(Cl)cc43)[nH]nc2c1

> <Outcome>
Inactive

> <StandardizerResult>
Clear Stereo (ID: ClearStereo)
Wedge Clean (ID: WedgeClean)
Mesomerize (ID: Mesomerize)
Tautomerize (ID: Tautomerize)
Aromatize (ID: Aromatize)
Add Explicit Hydrogens (ID: AddExplicitH)
Neutralize (ID: Neutralize)
Clean 2D (ID: Clean2D)

> <chiral flag>
0

> <version>
0

> <i_lp_mmshare_version>
41011

> <i_f3d_flags>
0

> <s_epik_input>
W0NIM11PYyhbY0hdW2NIXTEpW2NIXWMoYzEyKW5bbkhdYzJbTkhdQyg9TylbQ0BASF0oW0NIMl1bQ0gyXU8zKWMoYzM0KVtjSF1jKENsKVtjSF1bY0hdNA==

> <s_epik_cmdline>
J2VwaWtfcHl0aG9uJywgJy1waHQnLCAnMC41JywgJy1waCcsICc3LjQnLCAnLXRuJywgJzgnLCAnLW1hJywgJzIwMCcsICctaW1hZScsICc8aW5maWxlLm1hZT4nLCAnLW9tYWUnLCAnPG91dGZpbGUubWFlPic=

> <r_lp_tautomer_probability>
1.0

> <r_epik_Ionization_Penalty>
0.0

> <r_epik_Ionization_Penalty_Charging>
0.0

> <r_epik_Ionization_Penalty_Neutral>
0.0

> <r_epik_State_Penalty>
0.0

> <r_epik_Charging_Adjusted_Penalty>
0.0

> <i_epik_Tot_Q>
0

> <i_epik_Tot_abs_Q>
0

> <s_lp_Force_Field>
OPLS3

> <r_lp_Energy>
35.6272

> <b_lp_Chiralities_Consistent>
1

> <s_lp_Variant>
ligprep_COVID_compounds-withfrags-smallmolecules-forvalidation.maegz:57-2

> <i_glide_original_lignum>
226

> <s_i_glide_gridfile>
glide-grid_5RGK_M-PRO_COVID

> <i_i_glide_lignum>
226

> <r_i_docking_score>
-5.90505006432381

> <r_i_glide_ligand_efficiency>
-0.236202002572952

> <r_i_glide_ligand_efficiency_sa>
-0.690658844583666

> <r_i_glide_ligand_efficiency_ln>
-1.39967382531537

> <r_glide_XP_GScore>
-5.90505006432381

> <r_i_glide_gscore>
-5.90505006432381

> <r_i_glide_evdw>
-31.0995178222656

> <r_i_glide_ecoul>
-10.6420278549194

> <r_i_glide_energy>
-41.7415456771851

> <r_i_glide_einternal>
6.32391452789307

> <r_i_glide_emodel>
-47.5849811332601

> <r_glide_XP_HBond>
-1.65293870661125

> <i_i_glide_confnum>
1

> <i_i_glide_posenum>
1

> <r_i_glide_eff_state_penalty>
0.0

> <i_glide_XP_PoseRank>
1

> <MW>
357.09

> <cLogP>
3.73

> <TPSA>
76.24

> <Rotatable Bonds>
3

> <Fraction sp3>
0.22

> <HBA>
4

> <HBD>
2

> <s_epik_Chemistry_Notes>


> <Structure ID>


> <Submission Fragments>


$$$$
ligprep_COVID_compounds-withfrags-smallmolecules-forvalidation.maegz:4
                    3D
 Structure written by MMmdl.
 93 97  0  0  1  0            999 V2000
    6.3523    5.7085   24.0152 C   0  0  0  0  0  0
    5.1937    4.9479   24.7063 C   0  0  0  0  0  0
    5.7232    4.1946   25.9517 C   0  0  0  0  0  0
    4.1458    5.9814   25.1731 C   0  0  0  0  0  0
    4.5211    4.0328   23.7710 N   0  0  0  0  0  0
    3.5997    3.0909   24.0527 C   0  0  0  0  0  0
    3.2163    2.8067   25.1892 O   0  0  0  0  0  0
    3.0145    2.3551   22.8247 C   0  0  1  0  0  0
    1.8583    3.2429   22.2912 C   0  0  0  0  0  0
    1.3142    2.9134   20.9732 N   0  0  0  0  0  0
    0.5873    1.6376   20.9375 C   0  0  0  0  0  0
   -0.6716    1.6568   21.7932 C   0  0  0  0  0  0
   -0.7587    0.8884   22.9597 C   0  0  0  0  0  0
   -1.9242    0.9300   23.7274 C   0  0  0  0  0  0
   -2.9747    1.7439   23.3000 C   0  0  0  0  0  0
   -2.9127    2.4967   22.1716 N   0  0  0  0  0  0
   -1.7719    2.4446   21.4371 C   0  0  0  0  0  0
    2.3970    2.9586   19.9869 C   0  0  0  0  0  0
    3.5822    2.0125   20.2971 C   0  0  0  0  0  0
    4.0837    2.1697   21.7586 N   0  3  2  0  0  0
    5.0164    0.9796   22.1365 C   0  0  0  0  0  0
    6.4808    1.4213   22.3812 C   0  0  2  0  0  0
    7.3790    0.2408   22.8384 C   0  0  0  0  0  0
    7.3526   -0.1057   24.3587 C   0  0  2  0  0  0
    8.1504    0.9166   25.2142 C   0  0  0  0  0  0
    9.4459    1.3884   24.5645 C   0  0  0  0  0  0
   10.5000    0.4910   24.3706 C   0  0  0  0  0  0
   11.6800    0.9237   23.7717 C   0  0  0  0  0  0
   11.8032    2.2522   23.3699 C   0  0  0  0  0  0
   10.7571    3.1524   23.5619 C   0  0  0  0  0  0
    9.5766    2.7202   24.1609 C   0  0  0  0  0  0
    7.8436   -1.5397   24.6474 C   0  0  0  0  0  0
    8.7454   -1.7332   25.4645 O   0  0  0  0  0  0
    7.2542   -2.5255   23.9477 N   0  0  0  0  0  0
    7.5951   -3.9514   24.0202 C   0  0  2  0  0  0
    6.9070   -4.6147   25.2046 C   0  0  0  0  0  0
    5.6019   -5.0976   25.3279 C   0  0  0  0  0  0
    5.1861   -5.6757   26.5284 C   0  0  0  0  0  0
    6.0738   -5.7821   27.6001 C   0  0  0  0  0  0
    7.3843   -5.3182   27.4738 C   0  0  0  0  0  0
    7.8017   -4.7435   26.2724 C   0  0  0  0  0  0
    9.1507   -4.1781   25.8868 C   0  0  0  0  0  0
    9.0832   -4.1785   24.3569 C   0  0  2  0  0  0
   10.0077   -3.3030   23.7363 O   0  0  0  0  0  0
    6.4891    2.4424   23.3631 O   0  0  0  0  0  0
    6.7964    6.4496   24.6808 H   0  0  0  0  0  0
    6.0083    6.2370   23.1249 H   0  0  0  0  0  0
    7.1558    5.0397   23.7053 H   0  0  0  0  0  0
    6.5068    3.4806   25.6972 H   0  0  0  0  0  0
    4.9283    3.6401   26.4525 H   0  0  0  0  0  0
    6.1491    4.8829   26.6831 H   0  0  0  0  0  0
    4.5733    6.6978   25.8763 H   0  0  0  0  0  0
    3.3020    5.5032   25.6733 H   0  0  0  0  0  0
    3.7439    6.5532   24.3349 H   0  0  0  0  0  0
    4.8053    4.1310   22.8070 H   0  0  0  0  0  0
    2.6472    1.3649   23.1022 H   0  0  0  0  0  0
    1.0595    3.2553   23.0345 H   0  0  0  0  0  0
    2.2180    4.2732   22.2294 H   0  0  0  0  0  0
    0.2854    1.4260   19.9104 H   0  0  0  0  0  0
    1.2284    0.8086   21.2407 H   0  0  0  0  0  0
    0.0687    0.2683   23.2725 H   0  0  0  0  0  0
   -2.0110    0.3456   24.6314 H   0  0  0  0  0  0
   -3.8921    1.8017   23.8675 H   0  0  0  0  0  0
   -1.7493    3.0575   20.5477 H   0  0  0  0  0  0
    1.9988    2.7418   18.9946 H   0  0  0  0  0  0
    2.7659    3.9841   19.9268 H   0  0  0  0  0  0
    3.3040    0.9668   20.1573 H   0  0  0  0  0  0
    4.4270    2.2361   19.6452 H   0  0  0  0  0  0
    4.6015    0.5346   23.0423 H   0  0  0  0  0  0
    4.9341    0.2615   21.3183 H   0  0  0  0  0  0
    6.8963    1.8233   21.4567 H   0  0  0  0  0  0
    7.1623   -0.6485   22.2428 H   0  0  0  0  0  0
    8.4072    0.5023   22.5858 H   0  0  0  0  0  0
    6.3097   -0.0422   24.6785 H   0  0  0  0  0  0
    7.5429    1.8025   25.4127 H   0  0  0  0  0  0
    8.3679    0.5005   26.2004 H   0  0  0  0  0  0
   10.4053   -0.5400   24.6798 H   0  0  0  0  0  0
   12.4964    0.2329   23.6200 H   0  0  0  0  0  0
   12.7190    2.5876   22.9061 H   0  0  0  0  0  0
   10.8614    4.1806   23.2482 H   0  0  0  0  0  0
    8.7655    3.4185   24.3089 H   0  0  0  0  0  0
    6.5833   -2.2729   23.2369 H   0  0  0  0  0  0
    7.3649   -4.4633   23.0832 H   0  0  0  0  0  0
    4.9036   -5.0190   24.5078 H   0  0  0  0  0  0
    4.1745   -6.0409   26.6280 H   0  0  0  0  0  0
    5.7473   -6.2290   28.5277 H   0  0  0  0  0  0
    8.0641   -5.4128   28.3078 H   0  0  0  0  0  0
    9.2714   -3.1670   26.2793 H   0  0  0  0  0  0
    9.9893   -4.7757   26.2462 H   0  0  0  0  0  0
    9.3369   -5.1891   24.0276 H   0  0  0  0  0  0
   10.5638   -3.8153   23.1444 H   0  0  0  0  0  0
    6.4104    3.2935   22.9255 H   0  0  0  0  0  0
    4.6665    2.9957   21.7792 H   0  0  0  0  0  0
  1  2  1  0  0  0
  1 46  1  0  0  0
  1 47  1  0  0  0
  1 48  1  0  0  0
  2  3  1  0  0  0
  2  4  1  0  0  0
  2  5  1  0  0  0
  3 49  1  0  0  0
  3 50  1  0  0  0
  3 51  1  0  0  0
  4 52  1  0  0  0
  4 53  1  0  0  0
  4 54  1  0  0  0
  5  6  1  0  0  0
  5 55  1  0  0  0
  6  7  2  0  0  0
  6  8  1  0  0  0
  8  9  1  0  0  0
  8 20  1  0  0  0
  8 56  1  0  0  0
  9 10  1  0  0  0
  9 57  1  0  0  0
  9 58  1  0  0  0
 10 11  1  0  0  0
 10 18  1  0  0  0
 11 12  1  0  0  0
 11 59  1  0  0  0
 11 60  1  0  0  0
 12 13  2  0  0  0
 12 17  1  0  0  0
 13 14  1  0  0  0
 13 61  1  0  0  0
 14 15  2  0  0  0
 14 62  1  0  0  0
 15 16  1  0  0  0
 15 63  1  0  0  0
 16 17  2  0  0  0
 17 64  1  0  0  0
 18 19  1  0  0  0
 18 65  1  0  0  0
 18 66  1  0  0  0
 19 20  1  0  0  0
 19 67  1  0  0  0
 19 68  1  0  0  0
 20 21  1  0  0  0
 20 93  1  0  0  0
 21 22  1  0  0  0
 21 69  1  0  0  0
 21 70  1  0  0  0
 22 23  1  0  0  0
 22 45  1  0  0  0
 22 71  1  0  0  0
 23 24  1  0  0  0
 23 72  1  0  0  0
 23 73  1  0  0  0
 24 25  1  0  0  0
 24 32  1  0  0  0
 24 74  1  0  0  0
 25 26  1  0  0  0
 25 75  1  0  0  0
 25 76  1  0  0  0
 26 27  2  0  0  0
 26 31  1  0  0  0
 27 28  1  0  0  0
 27 77  1  0  0  0
 28 29  2  0  0  0
 28 78  1  0  0  0
 29 30  1  0  0  0
 29 79  1  0  0  0
 30 31  2  0  0  0
 30 80  1  0  0  0
 31 81  1  0  0  0
 32 33  2  0  0  0
 32 34  1  0  0  0
 34 35  1  0  0  0
 34 82  1  0  0  0
 35 36  1  0  0  0
 35 43  1  0  0  0
 35 83  1  0  0  0
 36 37  2  0  0  0
 36 41  1  0  0  0
 37 38  1  0  0  0
 37 84  1  0  0  0
 38 39  2  0  0  0
 38 85  1  0  0  0
 39 40  1  0  0  0
 39 86  1  0  0  0
 40 41  2  0  0  0
 40 87  1  0  0  0
 41 42  1  0  0  0
 42 43  1  0  0  0
 42 88  1  0  0  0
 42 89  1  0  0  0
 43 44  1  0  0  0
 43 90  1  0  0  0
 44 91  1  0  0  0
 45 92  1  0  0  0
M  CHG  1  20   1
M  END
> <s_m_entry_id>
97

> <s_m_entry_name>
Compounds-withfrags-for-validation-docking.1913

> <s_m_Source_Path>
/home/rodolpho/data/melina/maestro/glide-dock_XP_5RGK_M-PRO_VALIDATION

> <s_m_Source_File>
glide-dock_XP_5RGK_M-PRO_VALIDATION_pv.maegz

> <i_m_Source_File_Index>
97

> <CID>
Indinavir

> <Potency>
43.13

> <pIC50>
4.36522

> <Source>
https://doi.org/10.1101/2020.03.23.004580

> <smiles>
C(C(C([H])([H])[H])(C([H])([H])[H])N(C(=O)C1(C([H])([H])N(C(C2=C([H])C([H])=C([H])N=C2[H])([H])[H])C([H])([H])C([H])([H])N1C(C(C(C(C(C1=C([H])C([H])=C([H])C([H])=C1[H])([H])[H])(C(=O)N(C1(C2=C(C(=C(C([H])=C2C([H])([H])C1(O[H])[H])[H])[H])[H])[H])[H])[H])([H])[H])(O[H])[H])([H])[H])[H])[H])([H])([H])[H]

> <Outcome>
Inactive

> <StandardizerResult>
Clear Stereo (ID: ClearStereo)
Wedge Clean (ID: WedgeClean)
Mesomerize (ID: Mesomerize)
Tautomerize (ID: Tautomerize)
Aromatize (ID: Aromatize)
Add Explicit Hydrogens (ID: AddExplicitH)
Neutralize (ID: Neutralize)
Clean 2D (ID: Clean2D)

> <chiral flag>
0

> <version>
0

> <i_lp_mmshare_version>
41011

> <i_f3d_flags>
0

> <s_epik_input>
W2NIXTFuW2NIXVtjSF1bY0hdYzFbQ0gyXU4oW0NIMl1bQ0BASF0yQyg9TylbTkhdQyhbQ0gzXSkoW0NIM10pW0NIM10pW0NIMl1bQ0gyXU4yW0NIMl1bQ0BASF0oW09IXSlbQ0gyXVtDQEhdKFtDSDJdYzNbY0hdW2NIXVtjSF1bY0hdW2NIXTMpQyg9TylbTkhdW0NASF00W0NAQEhdKFtPSF0pW0NIMl1jKGM0NSlbY0hdW2NIXVtjSF1bY0hdNQ==

> <s_epik_cmdline>
J2VwaWtfcHl0aG9uJywgJy1waHQnLCAnMC41JywgJy1waCcsICc3LjQnLCAnLXRuJywgJzgnLCAnLW1hJywgJzIwMCcsICctaW1hZScsICc8aW5maWxlLm1hZT4nLCAnLW9tYWUnLCAnPG91dGZpbGUubWFlPic=

> <r_epik_Ionization_Penalty>
0.3395

> <r_epik_Ionization_Penalty_Charging>
0.3352

> <r_epik_Ionization_Penalty_Neutral>
0.0044

> <r_epik_State_Penalty>
0.5191

> <r_epik_Charging_Adjusted_Penalty>
0.854238

> <i_epik_Tot_Q>
1

> <i_epik_Tot_abs_Q>
1

> <s_lp_Force_Field>
OPLS3

> <r_lp_Energy>
54.3369

> <b_lp_Chiralities_Consistent>
1

> <s_lp_Variant>
ligprep_COVID_compounds-withfrags-smallmolecules-forvalidation.maegz:4-17

> <i_glide_original_lignum>
36

> <s_i_glide_gridfile>
glide-grid_5RGK_M-PRO_COVID

> <i_i_glide_lignum>
36

> <r_i_docking_score>
-5.87398718222407

> <r_i_glide_ligand_efficiency>
-0.130533048493868

> <r_i_glide_ligand_efficiency_sa>
-0.464292125613382

> <r_i_glide_ligand_efficiency_ln>
-1.22205109984844

> <r_glide_XP_GScore>
-6.39305918222407

> <r_i_glide_gscore>
-6.39305918222407

> <r_i_glide_evdw>
-37.2234001159668

> <r_i_glide_ecoul>
-20.5289630889893

> <r_i_glide_energy>
-57.7523632049561

> <r_i_glide_einternal>
11.4661426544189

> <r_i_glide_emodel>
-84.7571416210472

> <r_glide_XP_HBond>
-2.33091445724263

> <i_i_glide_confnum>
9

> <i_i_glide_posenum>
1

> <r_i_glide_eff_state_penalty>
0.519072

> <i_glide_XP_PoseRank>
1

> <r_lp_tautomer_probability>


> <s_epik_Chemistry_Notes>


> <MW>


> <cLogP>


> <TPSA>


> <Rotatable Bonds>


> <Fraction sp3>


> <HBA>


> <HBD>


> <Structure ID>


> <Submission Fragments>


$$$$
ligprep_COVID_compounds-withfrags-smallmolecules-forvalidation.maegz:7
                    3D
 Structure written by MMmdl.
 46 46  0  0  1  0            999 V2000
    2.5609    2.5843   19.8580 C   0  0  0  0  0  0
    3.4515    1.6211   20.6720 C   0  0  0  0  0  0
    3.6348    2.0889   22.1319 C   0  0  0  0  0  0
    4.8024    1.3735   19.9528 C   0  0  0  0  0  0
    5.5788    0.0858   20.3552 C   0  0  1  0  0  0
    6.2424   -0.5413   19.0816 C   0  0  0  0  0  0
    5.9647   -1.7477   18.9036 O   0  0  0  0  0  0
    6.9244    0.2460   18.3852 O   0  5  0  0  0  0
    6.5926    0.4526   21.3571 N   0  0  0  0  0  0
    6.3929    0.5842   22.6831 C   0  0  0  0  0  0
    5.2838    0.4636   23.2067 O   0  0  0  0  0  0
    7.6376    0.9155   23.5368 C   0  0  1  0  0  0
    7.7330    2.4170   23.9407 C   0  0  1  0  0  0
    8.9660    2.7555   24.8177 C   0  0  0  0  0  0
   10.3043    2.5977   24.1037 C   0  0  0  0  0  0
   11.0243    1.4047   24.2167 C   0  0  0  0  0  0
   12.2472    1.2667   23.5648 C   0  0  0  0  0  0
   12.7451    2.3205   22.8014 C   0  0  0  0  0  0
   12.0324    3.5121   22.6844 C   0  0  0  0  0  0
   10.8105    3.6513   23.3374 C   0  0  0  0  0  0
    7.7553    3.3108   22.6878 N   0  3  0  0  0  0
    7.5974    0.1195   24.7097 O   0  0  0  0  0  0
    2.4013    3.5378   20.3611 H   0  0  0  0  0  0
    1.5797    2.1438   19.6792 H   0  0  0  0  0  0
    2.9902    2.8130   18.8822 H   0  0  0  0  0  0
    2.9123    0.6738   20.7042 H   0  0  0  0  0  0
    4.6448    2.4516   22.3220 H   0  0  0  0  0  0
    3.4483    1.2658   22.8226 H   0  0  0  0  0  0
    2.9507    2.8920   22.4059 H   0  0  0  0  0  0
    4.6424    1.3793   18.8723 H   0  0  0  0  0  0
    5.4396    2.2374   20.1505 H   0  0  0  0  0  0
    4.8906   -0.6337   20.8039 H   0  0  0  0  0  0
    7.5210    0.5983   20.9888 H   0  0  0  0  0  0
    8.5286    0.6359   22.9708 H   0  0  0  0  0  0
    6.8231    2.7273   24.4596 H   0  0  0  0  0  0
    8.9014    3.7889   25.1622 H   0  0  0  0  0  0
    8.9599    2.1513   25.7269 H   0  0  0  0  0  0
   10.6421    0.5864   24.8097 H   0  0  0  0  0  0
   12.8087    0.3480   23.6525 H   0  0  0  0  0  0
   13.6942    2.2134   22.2969 H   0  0  0  0  0  0
   12.4267    4.3245   22.0918 H   0  0  0  0  0  0
   10.2592    4.5762   23.2470 H   0  0  0  0  0  0
    8.5679    3.1039   22.1250 H   0  0  0  0  0  0
    7.7872    4.2831   22.9602 H   0  0  0  0  0  0
    6.8731    0.4250   25.2623 H   0  0  0  0  0  0
    6.9241    3.1548   22.1349 H   0  0  0  0  0  0
  1  2  1  0  0  0
  1 23  1  0  0  0
  1 24  1  0  0  0
  1 25  1  0  0  0
  2  3  1  0  0  0
  2  4  1  0  0  0
  2 26  1  0  0  0
  3 27  1  0  0  0
  3 28  1  0  0  0
  3 29  1  0  0  0
  4  5  1  0  0  0
  4 30  1  0  0  0
  4 31  1  0  0  0
  5  6  1  0  0  0
  5  9  1  0  0  0
  5 32  1  0  0  0
  6  7  2  0  0  0
  6  8  1  0  0  0
  9 10  1  0  0  0
  9 33  1  0  0  0
 10 11  2  0  0  0
 10 12  1  0  0  0
 12 13  1  0  0  0
 12 22  1  0  0  0
 12 34  1  0  0  0
 13 14  1  0  0  0
 13 21  1  0  0  0
 13 35  1  0  0  0
 14 15  1  0  0  0
 14 36  1  0  0  0
 14 37  1  0  0  0
 15 16  2  0  0  0
 15 20  1  0  0  0
 16 17  1  0  0  0
 16 38  1  0  0  0
 17 18  2  0  0  0
 17 39  1  0  0  0
 18 19  1  0  0  0
 18 40  1  0  0  0
 19 20  2  0  0  0
 19 41  1  0  0  0
 20 42  1  0  0  0
 21 43  1  0  0  0
 21 44  1  0  0  0
 21 46  1  0  0  0
 22 45  1  0  0  0
M  CHG  2   8  -1  21   1
M  END
> <s_m_entry_id>
103

> <s_m_entry_name>
Compounds-withfrags-for-validation-docking.1910

> <s_m_Source_Path>
/home/rodolpho/data/melina/maestro/glide-dock_XP_5RGK_M-PRO_VALIDATION

> <s_m_Source_File>
glide-dock_XP_5RGK_M-PRO_VALIDATION_pv.maegz

> <i_m_Source_File_Index>
103

> <CID>
Ubenimex

> <Potency>
12.83

> <pIC50>
4.89177

> <Source>
https://doi.org/10.1101/2020.03.23.004580

> <smiles>
C(C(C([H])([H])[H])(C(C(C(=O)O[H])(N(C(=O)C(C(C(C1=C([H])C([H])=C([H])C([H])=C1[H])([H])[H])(N([H])[H])[H])(O[H])[H])[H])[H])([H])[H])[H])([H])([H])[H]

> <Outcome>
Inactive

> <StandardizerResult>
Clear Stereo (ID: ClearStereo)
Wedge Clean (ID: WedgeClean)
Mesomerize (ID: Mesomerize)
Tautomerize (ID: Tautomerize)
Aromatize (ID: Aromatize)
Add Explicit Hydrogens (ID: AddExplicitH)
Neutralize (ID: Neutralize)
Clean 2D (ID: Clean2D)

> <chiral flag>
0

> <version>
0

> <i_lp_mmshare_version>
41011

> <i_f3d_flags>
0

> <s_epik_input>
W0NIM11bQ0hdKFtDSDNdKVtDSDJdW0NAQEhdKEMoPU8pW09IXSlbTkhdQyg9TylbQ0BIXShbT0hdKVtDQEhdKFtOSDJdKVtDSDJdYzFbY0hdW2NIXVtjSF1bY0hdW2NIXTE=

> <s_epik_cmdline>
J2VwaWtfcHl0aG9uJywgJy1waHQnLCAnMC41JywgJy1waCcsICc3LjQnLCAnLXRuJywgJzgnLCAnLW1hJywgJzIwMCcsICctaW1hZScsICc8aW5maWxlLm1hZT4nLCAnLW9tYWUnLCAnPG91dGZpbGUubWFlPic=

> <r_epik_Ionization_Penalty>
0.0844

> <r_epik_Ionization_Penalty_Charging>
0.0843

> <r_epik_Ionization_Penalty_Neutral>
1.0E-4

> <r_epik_State_Penalty>
0.0749

> <r_epik_Charging_Adjusted_Penalty>
0.15915

> <i_epik_Tot_Q>
0

> <i_epik_Tot_abs_Q>
2

> <s_lp_Force_Field>
OPLS3

> <r_lp_Energy>
25.6242

> <b_lp_Chiralities_Consistent>
1

> <s_lp_Variant>
ligprep_COVID_compounds-withfrags-smallmolecules-forvalidation.maegz:7-2

> <i_glide_original_lignum>
102

> <s_i_glide_gridfile>
glide-grid_5RGK_M-PRO_COVID

> <i_i_glide_lignum>
102

> <r_i_docking_score>
-5.83779466996985

> <r_i_glide_ligand_efficiency>
-0.265354303180448

> <r_i_glide_ligand_efficiency_sa>
-0.743533193304171

> <r_i_glide_ligand_efficiency_ln>
-1.42696995607504

> <r_glide_XP_GScore>
-5.91265056996985

> <r_i_glide_gscore>
-5.91265056996985

> <r_i_glide_evdw>
-26.995080947876

> <r_i_glide_ecoul>
-17.7739295959473

> <r_i_glide_energy>
-44.7690105438232

> <r_i_glide_einternal>
6.53595304489136

> <r_i_glide_emodel>
-59.5925629739215

> <r_glide_XP_HBond>
-1.88375411824813

> <i_i_glide_confnum>
1

> <i_i_glide_posenum>
11

> <r_i_glide_eff_state_penalty>
0.0748559

> <i_glide_XP_PoseRank>
1

> <r_lp_tautomer_probability>


> <s_epik_Chemistry_Notes>


> <MW>


> <cLogP>


> <TPSA>


> <Rotatable Bonds>


> <Fraction sp3>


> <HBA>


> <HBD>


> <Structure ID>


> <Submission Fragments>


$$$$
ligprep_COVID_compounds-withfrags-smallmolecules-forvalidation.maegz:44
                    3D
 Structure written by MMmdl.
 58 61  0  0  1  0            999 V2000
    9.9041   -0.7627   24.1706 O   0  0  0  0  0  0
    8.7824   -0.6200   24.6589 C   0  0  0  0  0  0
    8.3729    0.5258   25.2333 N   0  0  0  0  0  0
    9.2050    1.7083   25.4286 C   0  0  0  0  0  0
    9.2937    2.5970   24.1734 C   0  0  0  0  0  0
   10.7029    2.6724   23.6074 C   0  0  0  0  0  0
   11.4807    1.5151   23.4946 C   0  0  0  0  0  0
   12.7746    1.5868   22.9772 C   0  0  0  0  0  0
   13.2975    2.8152   22.5716 C   0  0  0  0  0  0
   12.5265    3.9727   22.6834 C   0  0  0  0  0  0
   13.0334    5.1635   22.2916 F   0  0  0  0  0  0
   11.2323    3.9017   23.2002 C   0  0  0  0  0  0
    7.7627   -1.7965   24.5534 C   0  0  1  0  0  0
    8.3070   -3.1793   24.8782 C   0  0  0  0  0  0
    8.3740   -4.2245   23.9410 C   0  0  0  0  0  0
    8.8952   -5.4644   24.3133 C   0  0  0  0  0  0
    9.3406   -5.6319   25.6243 C   0  0  0  0  0  0
    9.2902   -4.6431   26.5515 N   0  0  0  0  0  0
    8.7804   -3.4443   26.1699 C   0  0  0  0  0  0
    6.4256   -1.5966   25.1968 N   0  0  0  0  0  0
    6.2944   -2.3007   26.4910 C   0  0  0  0  0  0
    5.0819   -3.2080   26.5162 C   0  0  0  0  0  0
    4.9884   -4.5615   26.1949 C   0  0  0  0  0  0
    3.7164   -5.1374   26.3420 C   0  0  0  0  0  0
    3.3973   -6.5982   26.0848 C   0  0  0  0  0  0
    2.0859   -6.8088   25.9616 F   0  0  0  0  0  0
    3.9792   -7.0257   24.9642 F   0  0  0  0  0  0
    3.8347   -7.3607   27.0865 F   0  0  0  0  0  0
    2.8087   -4.1743   26.7652 C   0  0  0  0  0  0
    3.5207   -2.6162   26.9937 S   0  0  0  0  0  0
    5.3892   -0.9701   24.5497 C   0  0  0  0  0  0
    4.2347   -0.9646   24.9813 O   0  0  0  0  0  0
    5.6495   -0.2737   23.3136 C   0  0  0  0  0  0
    6.3835   -0.6116   22.1785 C   0  0  0  0  0  0
    6.1755    0.4014   21.2416 C   0  0  0  0  0  0
    5.2763    1.2823   21.8164 C   0  0  0  0  0  0
    4.9320    0.8546   23.0582 O   0  0  0  0  0  0
    7.4135    0.5960   25.5409 H   0  0  0  0  0  0
    8.7641    2.2804   26.2462 H   0  0  0  0  0  0
   10.2032    1.4218   25.7668 H   0  0  0  0  0  0
    8.6143    2.2332   23.4006 H   0  0  0  0  0  0
    8.9580    3.6078   24.4066 H   0  0  0  0  0  0
   11.0844    0.5597   23.8078 H   0  0  0  0  0  0
   13.3717    0.6908   22.8909 H   0  0  0  0  0  0
   14.2993    2.8695   22.1715 H   0  0  0  0  0  0
   10.6426    4.8032   23.2849 H   0  0  0  0  0  0
    7.5820   -1.8081   23.4772 H   0  0  0  0  0  0
    8.0353   -4.0801   22.9255 H   0  0  0  0  0  0
    8.9546   -6.2743   23.6014 H   0  0  0  0  0  0
    9.7511   -6.5765   25.9492 H   0  0  0  0  0  0
    8.7572   -2.6792   26.9323 H   0  0  0  0  0  0
    7.2163   -2.8485   26.6908 H   0  0  0  0  0  0
    6.2255   -1.6169   27.3302 H   0  0  0  0  0  0
    5.8462   -5.1334   25.8718 H   0  0  0  0  0  0
    1.7564   -4.3129   26.9655 H   0  0  0  0  0  0
    6.9976   -1.4898   22.0422 H   0  0  0  0  0  0
    6.6075    0.4696   20.2543 H   0  0  0  0  0  0
    4.8043    2.1924   21.4761 H   0  0  0  0  0  0
  1  2  2  0  0  0
  2  3  1  0  0  0
  2 13  1  0  0  0
  3  4  1  0  0  0
  3 38  1  0  0  0
  4  5  1  0  0  0
  4 39  1  0  0  0
  4 40  1  0  0  0
  5  6  1  0  0  0
  5 41  1  0  0  0
  5 42  1  0  0  0
  6  7  2  0  0  0
  6 12  1  0  0  0
  7  8  1  0  0  0
  7 43  1  0  0  0
  8  9  2  0  0  0
  8 44  1  0  0  0
  9 10  1  0  0  0
  9 45  1  0  0  0
 10 11  1  0  0  0
 10 12  2  0  0  0
 12 46  1  0  0  0
 13 14  1  0  0  0
 13 20  1  0  0  0
 13 47  1  0  0  0
 14 15  2  0  0  0
 14 19  1  0  0  0
 15 16  1  0  0  0
 15 48  1  0  0  0
 16 17  2  0  0  0
 16 49  1  0  0  0
 17 18  1  0  0  0
 17 50  1  0  0  0
 18 19  2  0  0  0
 19 51  1  0  0  0
 20 21  1  0  0  0
 20 31  1  0  0  0
 21 22  1  0  0  0
 21 52  1  0  0  0
 21 53  1  0  0  0
 22 23  2  0  0  0
 22 30  1  0  0  0
 23 24  1  0  0  0
 23 54  1  0  0  0
 24 25  1  0  0  0
 24 29  2  0  0  0
 25 26  1  0  0  0
 25 27  1  0  0  0
 25 28  1  0  0  0
 29 30  1  0  0  0
 29 55  1  0  0  0
 31 32  2  0  0  0
 31 33  1  0  0  0
 33 34  2  0  0  0
 33 37  1  0  0  0
 34 35  1  0  0  0
 34 56  1  0  0  0
 35 36  2  0  0  0
 35 57  1  0  0  0
 36 37  1  0  0  0
 36 58  1  0  0  0
M  END
> <s_m_entry_id>
104

> <s_m_entry_name>
Compounds-withfrags-for-validation-docking.1873

> <s_m_Source_Path>
/home/rodolpho/data/melina/maestro/glide-dock_XP_5RGK_M-PRO_VALIDATION

> <s_m_Source_File>
glide-dock_XP_5RGK_M-PRO_VALIDATION_pv.maegz

> <i_m_Source_File_Index>
104

> <CID>
ALP-POS-b0bc6a46-7

> <Potency>
99.5

> <pIC50>
4.00218

> <Source>
Postera

> <smiles>
O=C(NCCc1cccc(F)c1)C(c1cccnc1)N(Cc1cc(C(F)(F)F)cs1)C(=O)c1ccco1

> <Outcome>
Inactive

> <StandardizerResult>
Clear Stereo (ID: ClearStereo)
Wedge Clean (ID: WedgeClean)
Mesomerize (ID: Mesomerize)
Tautomerize (ID: Tautomerize)
Aromatize (ID: Aromatize)
Add Explicit Hydrogens (ID: AddExplicitH)
Neutralize (ID: Neutralize)
Clean 2D (ID: Clean2D)

> <chiral flag>
0

> <version>
0

> <i_lp_mmshare_version>
41011

> <i_f3d_flags>
0

> <s_epik_input>
RkMoRikoRiljKFtjSF1zMSlbY0hdYzFbQ0gyXU4oQyg9TyljMltjSF1bY0hdW2NIXW8yKVtDQEhdKGMzW2NIXVtjSF1bY0hdbltjSF0zKUMoPU8pW05IXVtDSDJdW0NIMl1jNFtjSF1bY0hdW2NIXWMoRilbY0hdNA==

> <s_epik_cmdline>
J2VwaWtfcHl0aG9uJywgJy1waHQnLCAnMC41JywgJy1waCcsICc3LjQnLCAnLXRuJywgJzgnLCAnLW1hJywgJzIwMCcsICctaW1hZScsICc8aW5maWxlLm1hZT4nLCAnLW9tYWUnLCAnPG91dGZpbGUubWFlPic=

> <r_lp_tautomer_probability>
1.0

> <r_epik_Ionization_Penalty>
7.0E-4

> <r_epik_Ionization_Penalty_Charging>
0.0

> <r_epik_Ionization_Penalty_Neutral>
7.0E-4

> <r_epik_State_Penalty>
0.0

> <r_epik_Charging_Adjusted_Penalty>
0.0

> <i_epik_Tot_Q>
0

> <i_epik_Tot_abs_Q>
0

> <s_lp_Force_Field>
OPLS3

> <r_lp_Energy>
51.1857

> <b_lp_Chiralities_Consistent>
1

> <s_lp_Variant>
ligprep_COVID_compounds-withfrags-smallmolecules-forvalidation.maegz:44-1

> <i_glide_original_lignum>
193

> <s_i_glide_gridfile>
glide-grid_5RGK_M-PRO_COVID

> <i_i_glide_lignum>
193

> <r_i_docking_score>
-5.83523944718127

> <r_i_glide_ligand_efficiency>
-0.157709174248142

> <r_i_glide_ligand_efficiency_sa>
-0.525521956002161

> <r_i_glide_ligand_efficiency_ln>
-1.26552663867202

> <r_glide_XP_GScore>
-5.83523944718127

> <r_i_glide_gscore>
-5.83523944718127

> <r_i_glide_evdw>
-39.5876388549805

> <r_i_glide_ecoul>
-10.6264810562134

> <r_i_glide_energy>
-50.2141199111938

> <r_i_glide_einternal>
6.39251184463501

> <r_i_glide_emodel>
-72.7946856215949

> <r_glide_XP_HBond>
-0.779146792036011

> <i_i_glide_confnum>
1

> <i_i_glide_posenum>
1

> <r_i_glide_eff_state_penalty>
0.0

> <i_glide_XP_PoseRank>
1

> <MW>
531.12

> <cLogP>
5.64

> <TPSA>
75.44

> <Rotatable Bonds>
9

> <Fraction sp3>
0.19

> <HBA>
5

> <HBD>
1

> <s_epik_Chemistry_Notes>


> <Structure ID>


> <Submission Fragments>


$$$$
ligprep_COVID_compounds-withfrags-smallmolecules-forvalidation.maegz:4
                    3D
 Structure written by MMmdl.
 93 97  0  0  1  0            999 V2000
   -1.1952    2.6485   25.1771 C   0  0  0  0  0  0
    0.2298    2.2300   25.5767 C   0  0  0  0  0  0
    0.5120    2.7563   27.0021 C   0  0  0  0  0  0
    0.3333    0.6926   25.5234 C   0  0  0  0  0  0
    1.1467    2.8339   24.5998 N   0  0  0  0  0  0
    2.4932    2.7991   24.5869 C   0  0  0  0  0  0
    3.1734    2.2332   25.4411 O   0  0  0  0  0  0
    3.1777    3.5352   23.4210 C   0  0  2  0  0  0
    3.1885    2.6963   22.1209 C   0  0  0  0  0  0
    3.9838    1.4925   22.3557 N   0  0  0  0  0  0
    3.8362    0.4823   21.3206 C   0  0  0  0  0  0
    4.7812    0.5508   20.1368 C   0  0  0  0  0  0
    4.5506    1.4079   19.0427 C   0  0  0  0  0  0
    5.5088    1.4355   18.0151 C   0  0  0  0  0  0
    6.6559    0.6372   18.1457 C   0  0  0  0  0  0
    6.8834   -0.1963   19.1712 N   0  0  0  0  0  0
    5.9476   -0.2485   20.1366 C   0  0  0  0  0  0
    5.3834    1.8615   22.5321 C   0  0  0  0  0  0
    5.5855    2.8891   23.6431 C   0  0  0  0  0  0
    4.5689    3.9665   23.7249 N   0  3  2  0  0  0
    4.7436    4.9089   24.8588 C   0  0  0  0  0  0
    5.3132    6.2628   24.3803 C   0  0  2  0  0  0
    6.7329    6.5928   24.8874 C   0  0  0  0  0  0
    7.8896    5.7974   24.2129 C   0  0  1  0  0  0
    9.1245    6.6938   23.9396 C   0  0  0  0  0  0
   10.0842    6.9325   25.1073 C   0  0  0  0  0  0
    9.6377    7.4747   26.3314 C   0  0  0  0  0  0
   10.5491    7.7211   27.3770 C   0  0  0  0  0  0
   11.9164    7.4390   27.2016 C   0  0  0  0  0  0
   12.3736    6.9243   25.9722 C   0  0  0  0  0  0
   11.4621    6.6652   24.9369 C   0  0  0  0  0  0
    8.2982    4.5119   24.9620 C   0  0  0  0  0  0
    8.1971    4.4440   26.1820 O   0  0  0  0  0  0
    8.7729    3.4995   24.2258 N   0  0  0  0  0  0
    9.6285    2.4474   24.7523 C   0  0  2  0  0  0
   10.8866    2.3881   23.9392 C   0  0  0  0  0  0
   11.5642    3.4736   23.3549 C   0  0  0  0  0  0
   12.7732    3.2325   22.6776 C   0  0  0  0  0  0
   13.2685    1.9127   22.6037 C   0  0  0  0  0  0
   12.5237    0.8249   23.1006 C   0  0  0  0  0  0
   11.3222    1.0878   23.7783 C   0  0  0  0  0  0
   10.3448    0.1191   24.3938 C   0  0  0  0  0  0
    9.0932    0.9923   24.7123 C   0  0  1  0  0  0
    8.5662    0.5957   25.9666 O   0  0  0  0  0  0
    4.4569    7.2841   24.8538 O   0  0  0  0  0  0
   -1.9315    2.2875   25.8990 H   0  0  0  0  0  0
   -1.4774    2.2565   24.1981 H   0  0  0  0  0  0
   -1.2970    3.7343   25.1394 H   0  0  0  0  0  0
    0.5223    3.8460   27.0319 H   0  0  0  0  0  0
    1.4708    2.4065   27.3843 H   0  0  0  0  0  0
   -0.2500    2.4149   27.7079 H   0  0  0  0  0  0
   -0.3759    0.2347   26.2140 H   0  0  0  0  0  0
    1.3238    0.3423   25.8076 H   0  0  0  0  0  0
    0.1257    0.3108   24.5232 H   0  0  0  0  0  0
    0.6986    3.3341   23.8481 H   0  0  0  0  0  0
    2.6066    4.4465   23.2279 H   0  0  0  0  0  0
    2.1647    2.4193   21.8706 H   0  0  0  0  0  0
    3.5767    3.2710   21.2764 H   0  0  0  0  0  0
    3.9751   -0.4869   21.7978 H   0  0  0  0  0  0
    2.8113    0.5188   20.9703 H   0  0  0  0  0  0
    3.6728    2.0359   18.9947 H   0  0  0  0  0  0
    5.3728    2.0950   17.1701 H   0  0  0  0  0  0
    7.4325    0.6969   17.3991 H   0  0  0  0  0  0
    6.1552   -0.9280   20.9508 H   0  0  0  0  0  0
    5.9698    0.9713   22.7662 H   0  0  0  0  0  0
    5.7928    2.2506   21.6026 H   0  0  0  0  0  0
    5.7498    2.3777   24.5707 H   0  0  0  0  0  0
    6.5044    3.3902   23.3841 H   0  0  0  0  0  0
    3.7790    5.0708   25.3465 H   0  0  0  0  0  0
    5.3687    4.4665   25.6342 H   0  0  0  0  0  0
    5.2852    6.3364   23.2920 H   0  0  0  0  0  0
    6.8953    7.6576   24.7119 H   0  0  0  0  0  0
    6.7525    6.4845   25.9731 H   0  0  0  0  0  0
    7.5251    5.5032   23.2253 H   0  0  0  0  0  0
    9.6903    6.2609   23.1155 H   0  0  0  0  0  0
    8.7999    7.6640   23.5664 H   0  0  0  0  0  0
    8.5977    7.7122   26.4839 H   0  0  0  0  0  0
   10.1988    8.1251   28.3141 H   0  0  0  0  0  0
   12.6157    7.6265   28.0042 H   0  0  0  0  0  0
   13.4177    6.7025   25.8224 H   0  0  0  0  0  0
   11.8476    6.3184   23.9940 H   0  0  0  0  0  0
    8.7734    3.6083   23.2196 H   0  0  0  0  0  0
    9.9687    2.6362   25.7689 H   0  0  0  0  0  0
   11.1568    4.4653   23.4220 H   0  0  0  0  0  0
   13.3365    4.0482   22.2496 H   0  0  0  0  0  0
   14.2382    1.7226   22.1708 H   0  0  0  0  0  0
   12.9066   -0.1660   22.9697 H   0  0  0  0  0  0
   10.1206   -0.7420   23.7691 H   0  0  0  0  0  0
   10.7949   -0.2575   25.3116 H   0  0  0  0  0  0
    8.3512    0.8775   23.9179 H   0  0  0  0  0  0
    7.7128    0.9960   26.0958 H   0  0  0  0  0  0
    4.5484    7.3539   25.7943 H   0  0  0  0  0  0
    4.8174    4.4871   22.8813 H   0  0  0  0  0  0
  1  2  1  0  0  0
  1 46  1  0  0  0
  1 47  1  0  0  0
  1 48  1  0  0  0
  2  3  1  0  0  0
  2  4  1  0  0  0
  2  5  1  0  0  0
  3 49  1  0  0  0
  3 50  1  0  0  0
  3 51  1  0  0  0
  4 52  1  0  0  0
  4 53  1  0  0  0
  4 54  1  0  0  0
  5  6  1  0  0  0
  5 55  1  0  0  0
  6  7  2  0  0  0
  6  8  1  0  0  0
  8  9  1  0  0  0
  8 20  1  0  0  0
  8 56  1  0  0  0
  9 10  1  0  0  0
  9 57  1  0  0  0
  9 58  1  0  0  0
 10 11  1  0  0  0
 10 18  1  0  0  0
 11 12  1  0  0  0
 11 59  1  0  0  0
 11 60  1  0  0  0
 12 13  2  0  0  0
 12 17  1  0  0  0
 13 14  1  0  0  0
 13 61  1  0  0  0
 14 15  2  0  0  0
 14 62  1  0  0  0
 15 16  1  0  0  0
 15 63  1  0  0  0
 16 17  2  0  0  0
 17 64  1  0  0  0
 18 19  1  0  0  0
 18 65  1  0  0  0
 18 66  1  0  0  0
 19 20  1  0  0  0
 19 67  1  0  0  0
 19 68  1  0  0  0
 20 21  1  0  0  0
 20 93  1  0  0  0
 21 22  1  0  0  0
 21 69  1  0  0  0
 21 70  1  0  0  0
 22 23  1  0  0  0
 22 45  1  0  0  0
 22 71  1  0  0  0
 23 24  1  0  0  0
 23 72  1  0  0  0
 23 73  1  0  0  0
 24 25  1  0  0  0
 24 32  1  0  0  0
 24 74  1  0  0  0
 25 26  1  0  0  0
 25 75  1  0  0  0
 25 76  1  0  0  0
 26 27  2  0  0  0
 26 31  1  0  0  0
 27 28  1  0  0  0
 27 77  1  0  0  0
 28 29  2  0  0  0
 28 78  1  0  0  0
 29 30  1  0  0  0
 29 79  1  0  0  0
 30 31  2  0  0  0
 30 80  1  0  0  0
 31 81  1  0  0  0
 32 33  2  0  0  0
 32 34  1  0  0  0
 34 35  1  0  0  0
 34 82  1  0  0  0
 35 36  1  0  0  0
 35 43  1  0  0  0
 35 83  1  0  0  0
 36 37  2  0  0  0
 36 41  1  0  0  0
 37 38  1  0  0  0
 37 84  1  0  0  0
 38 39  2  0  0  0
 38 85  1  0  0  0
 39 40  1  0  0  0
 39 86  1  0  0  0
 40 41  2  0  0  0
 40 87  1  0  0  0
 41 42  1  0  0  0
 42 43  1  0  0  0
 42 88  1  0  0  0
 42 89  1  0  0  0
 43 44  1  0  0  0
 43 90  1  0  0  0
 44 91  1  0  0  0
 45 92  1  0  0  0
M  CHG  1  20   1
M  END
> <s_m_entry_id>
109

> <s_m_entry_name>
Compounds-withfrags-for-validation-docking.1913

> <s_m_Source_Path>
/home/rodolpho/data/melina/maestro/glide-dock_XP_5RGK_M-PRO_VALIDATION

> <s_m_Source_File>
glide-dock_XP_5RGK_M-PRO_VALIDATION_pv.maegz

> <i_m_Source_File_Index>
109

> <CID>
Indinavir

> <Potency>
43.13

> <pIC50>
4.36522

> <Source>
https://doi.org/10.1101/2020.03.23.004580

> <smiles>
C(C(C([H])([H])[H])(C([H])([H])[H])N(C(=O)C1(C([H])([H])N(C(C2=C([H])C([H])=C([H])N=C2[H])([H])[H])C([H])([H])C([H])([H])N1C(C(C(C(C(C1=C([H])C([H])=C([H])C([H])=C1[H])([H])[H])(C(=O)N(C1(C2=C(C(=C(C([H])=C2C([H])([H])C1(O[H])[H])[H])[H])[H])[H])[H])[H])([H])[H])(O[H])[H])([H])[H])[H])[H])([H])([H])[H]

> <Outcome>
Inactive

> <StandardizerResult>
Clear Stereo (ID: ClearStereo)
Wedge Clean (ID: WedgeClean)
Mesomerize (ID: Mesomerize)
Tautomerize (ID: Tautomerize)
Aromatize (ID: Aromatize)
Add Explicit Hydrogens (ID: AddExplicitH)
Neutralize (ID: Neutralize)
Clean 2D (ID: Clean2D)

> <chiral flag>
0

> <version>
0

> <i_lp_mmshare_version>
41011

> <i_f3d_flags>
0

> <s_epik_input>
W2NIXTFuW2NIXVtjSF1bY0hdYzFbQ0gyXU4oW0NIMl1bQ0BIXTJDKD1PKVtOSF1DKFtDSDNdKShbQ0gzXSlbQ0gzXSlbQ0gyXVtDSDJdTjJbQ0gyXVtDQEBIXShbT0hdKVtDSDJdW0NAQEhdKFtDSDJdYzNbY0hdW2NIXVtjSF1bY0hdW2NIXTMpQyg9TylbTkhdW0NASF00W0NASF0oW09IXSlbQ0gyXWMoYzQ1KVtjSF1bY0hdW2NIXVtjSF01

> <s_epik_cmdline>
J2VwaWtfcHl0aG9uJywgJy1waHQnLCAnMC41JywgJy1waCcsICc3LjQnLCAnLXRuJywgJzgnLCAnLW1hJywgJzIwMCcsICctaW1hZScsICc8aW5maWxlLm1hZT4nLCAnLW9tYWUnLCAnPG91dGZpbGUubWFlPic=

> <r_epik_Ionization_Penalty>
0.3395

> <r_epik_Ionization_Penalty_Charging>
0.3352

> <r_epik_Ionization_Penalty_Neutral>
0.0044

> <r_epik_State_Penalty>
0.5191

> <r_epik_Charging_Adjusted_Penalty>
0.854238

> <i_epik_Tot_Q>
1

> <i_epik_Tot_abs_Q>
1

> <s_lp_Force_Field>
OPLS3

> <r_lp_Energy>
55.364

> <b_lp_Chiralities_Consistent>
1

> <s_lp_Variant>
ligprep_COVID_compounds-withfrags-smallmolecules-forvalidation.maegz:4-27

> <i_glide_original_lignum>
46

> <s_i_glide_gridfile>
glide-grid_5RGK_M-PRO_COVID

> <i_i_glide_lignum>
46

> <r_i_docking_score>
-5.79625168289958

> <r_i_glide_ligand_efficiency>
-0.128805592953324

> <r_i_glide_ligand_efficiency_sa>
-0.458147750575213

> <r_i_glide_ligand_efficiency_ln>
-1.20587865181617

> <r_glide_XP_GScore>
-6.31532368289958

> <r_i_glide_gscore>
-6.31532368289958

> <r_i_glide_evdw>
-40.4698753356934

> <r_i_glide_ecoul>
-13.4626579284668

> <r_i_glide_energy>
-53.9325332641602

> <r_i_glide_einternal>
8.3055591583252

> <r_i_glide_emodel>
-78.7803155959809

> <r_glide_XP_HBond>
-1.30847868490151

> <i_i_glide_confnum>
7

> <i_i_glide_posenum>
10

> <r_i_glide_eff_state_penalty>
0.519072

> <i_glide_XP_PoseRank>
1

> <r_lp_tautomer_probability>


> <s_epik_Chemistry_Notes>


> <MW>


> <cLogP>


> <TPSA>


> <Rotatable Bonds>


> <Fraction sp3>


> <HBA>


> <HBD>


> <Structure ID>


> <Submission Fragments>


$$$$
ligprep_COVID_compounds-withfrags-smallmolecules-forvalidation.maegz:83
                    3D
 Structure written by MMmdl.
 54 58  0  0  1  0            999 V2000
    9.4621   -0.1694   26.5633 O   0  0  0  0  0  0
    8.7638    0.0748   25.5767 C   0  0  0  0  0  0
    9.1202    1.3574   24.7851 C   0  0  0  0  0  0
   10.4542    1.4171   24.2120 N   0  0  0  0  0  0
   11.1619    0.2915   23.9134 N   0  0  0  0  0  0
   12.2584    0.6365   23.3065 N   0  0  0  0  0  0
   12.2614    2.0115   23.1745 C   0  0  0  0  0  0
   13.1751    2.9011   22.5705 C   0  0  0  0  0  0
   12.9094    4.2860   22.5392 C   0  0  0  0  0  0
   11.7218    4.7922   23.1051 C   0  0  0  0  0  0
   10.7958    3.9223   23.7079 C   0  0  0  0  0  0
   11.0897    2.5492   23.7455 C   0  0  0  0  0  0
    7.7295   -0.7421   25.2118 N   0  0  0  0  0  0
    7.3125   -1.8261   26.1256 C   0  0  0  0  0  0
    8.0838   -3.1220   26.0297 C   0  0  0  0  0  0
    7.7321   -4.2859   26.7830 C   0  0  0  0  0  0
    8.5459   -5.3616   26.5421 C   0  0  0  0  0  0
    9.7876   -4.9757   25.3876 S   0  0  0  0  0  0
    9.1751   -3.3537   25.2281 C   0  0  0  0  0  0
    7.0242   -0.6498   23.9686 C   0  0  0  0  0  0
    6.3653    0.5271   23.5546 C   0  0  0  0  0  0
    5.7954    0.6369   22.2823 C   0  0  0  0  0  0
    5.8714   -0.4334   21.3620 C   0  0  0  0  0  0
    5.5195   -0.2467   20.0030 N   0  0  0  0  0  0
    5.7686    1.1244   19.5456 C   0  0  0  0  0  0
    5.5890    1.2833   18.0378 C   0  0  0  0  0  0
    6.3728    0.3215   17.3709 O   0  0  0  0  0  0
    5.8407   -0.9576   17.6359 C   0  0  0  0  0  0
    6.0617   -1.2743   19.1102 C   0  0  0  0  0  0
    6.3750   -1.6682   21.8430 C   0  0  0  0  0  0
    6.9352   -1.7769   23.1284 C   0  0  0  0  0  0
    8.4652    1.5954   23.9610 H   0  0  0  0  0  0
    9.0229    2.1928   25.4791 H   0  0  0  0  0  0
   14.0919    2.5165   22.1502 H   0  0  0  0  0  0
   13.6125    4.9600   22.0738 H   0  0  0  0  0  0
   11.5095    5.8464   23.0640 H   0  0  0  0  0  0
    9.8775    4.3042   24.1287 H   0  0  0  0  0  0
    7.3400   -1.4629   27.1547 H   0  0  0  0  0  0
    6.2547   -2.0294   25.9481 H   0  0  0  0  0  0
    6.8962   -4.2973   27.4671 H   0  0  0  0  0  0
    8.4973   -6.3581   26.9687 H   0  0  0  0  0  0
    9.6729   -2.6697   24.5588 H   0  0  0  0  0  0
    6.3391    1.4072   24.1715 H   0  0  0  0  0  0
    5.3671    1.5936   22.0252 H   0  0  0  0  0  0
    5.0750    1.8207   20.0142 H   0  0  0  0  0  0
    6.7761    1.4127   19.8425 H   0  0  0  0  0  0
    4.5337    1.2208   17.7719 H   0  0  0  0  0  0
    5.9560    2.2368   17.7018 H   0  0  0  0  0  0
    4.7788   -0.9634   17.3731 H   0  0  0  0  0  0
    6.3690   -1.6917   17.0260 H   0  0  0  0  0  0
    7.1343   -1.3633   19.2885 H   0  0  0  0  0  0
    5.5930   -2.2366   19.3158 H   0  0  0  0  0  0
    6.4035   -2.5572   21.2330 H   0  0  0  0  0  0
    7.3544   -2.7268   23.4186 H   0  0  0  0  0  0
  1  2  2  0  0  0
  2  3  1  0  0  0
  2 13  1  0  0  0
  3  4  1  0  0  0
  3 32  1  0  0  0
  3 33  1  0  0  0
  4  5  1  0  0  0
  4 12  1  0  0  0
  5  6  2  0  0  0
  6  7  1  0  0  0
  7  8  2  0  0  0
  7 12  1  0  0  0
  8  9  1  0  0  0
  8 34  1  0  0  0
  9 10  2  0  0  0
  9 35  1  0  0  0
 10 11  1  0  0  0
 10 36  1  0  0  0
 11 12  2  0  0  0
 11 37  1  0  0  0
 13 14  1  0  0  0
 13 20  1  0  0  0
 14 15  1  0  0  0
 14 38  1  0  0  0
 14 39  1  0  0  0
 15 16  1  0  0  0
 15 19  2  0  0  0
 16 17  2  0  0  0
 16 40  1  0  0  0
 17 18  1  0  0  0
 17 41  1  0  0  0
 18 19  1  0  0  0
 19 42  1  0  0  0
 20 21  2  0  0  0
 20 31  1  0  0  0
 21 22  1  0  0  0
 21 43  1  0  0  0
 22 23  2  0  0  0
 22 44  1  0  0  0
 23 24  1  0  0  0
 23 30  1  0  0  0
 24 25  1  0  0  0
 24 29  1  0  0  0
 25 26  1  0  0  0
 25 45  1  0  0  0
 25 46  1  0  0  0
 26 27  1  0  0  0
 26 47  1  0  0  0
 26 48  1  0  0  0
 27 28  1  0  0  0
 28 29  1  0  0  0
 28 49  1  0  0  0
 28 50  1  0  0  0
 29 51  1  0  0  0
 29 52  1  0  0  0
 30 31  2  0  0  0
 30 53  1  0  0  0
 31 54  1  0  0  0
M  END
> <s_m_entry_id>
112

> <s_m_entry_name>
Compounds-withfrags-for-validation-docking.1834

> <s_m_Source_Path>
/home/rodolpho/data/melina/maestro/glide-dock_XP_5RGK_M-PRO_VALIDATION

> <s_m_Source_File>
glide-dock_XP_5RGK_M-PRO_VALIDATION_pv.maegz

> <i_m_Source_File_Index>
112

> <CID>
ALP-POS-6d04362c-4

> <Potency>
11.6229

> <pIC50>
4.93469

> <Source>
Postera

> <smiles>
O=C(Cn1nnc2ccccc21)N(Cc1ccsc1)c1ccc(N2CCOCC2)cc1

> <Outcome>
Inactive

> <StandardizerResult>
Clear Stereo (ID: ClearStereo)
Wedge Clean (ID: WedgeClean)
Mesomerize (ID: Mesomerize)
Tautomerize (ID: Tautomerize)
Aromatize (ID: Aromatize)
Add Explicit Hydrogens (ID: AddExplicitH)
Neutralize (ID: Neutralize)
Clean 2D (ID: Clean2D)

> <chiral flag>
0

> <version>
0

> <i_lp_mmshare_version>
41011

> <i_f3d_flags>
0

> <s_epik_input>
W2NIXTFbY0hdW2NIXVtjSF1jKGMxMiluKG5uMilbQ0gyXUMoPU8pTihbQ0gyXWMzW2NIXVtjSF1zW2NIXTMpYzRbY0hdW2NIXWMoW2NIXVtjSF00KU41W0NIMl1bQ0gyXU9bQ0gyXVtDSDJdNQ==

> <s_epik_cmdline>
J2VwaWtfcHl0aG9uJywgJy1waHQnLCAnMC41JywgJy1waCcsICc3LjQnLCAnLXRuJywgJzgnLCAnLW1hJywgJzIwMCcsICctaW1hZScsICc8aW5maWxlLm1hZT4nLCAnLW9tYWUnLCAnPG91dGZpbGUubWFlPic=

> <r_lp_tautomer_probability>
1.0

> <r_epik_Ionization_Penalty>
0.0

> <r_epik_Ionization_Penalty_Charging>
0.0

> <r_epik_Ionization_Penalty_Neutral>
0.0

> <r_epik_State_Penalty>
0.0

> <r_epik_Charging_Adjusted_Penalty>
0.0

> <i_epik_Tot_Q>
0

> <i_epik_Tot_abs_Q>
0

> <s_lp_Force_Field>
OPLS3

> <r_lp_Energy>
44.7715

> <b_lp_Chiralities_Consistent>
1

> <s_lp_Variant>
ligprep_COVID_compounds-withfrags-smallmolecules-forvalidation.maegz:83-1

> <i_glide_original_lignum>
264

> <s_i_glide_gridfile>
glide-grid_5RGK_M-PRO_COVID

> <i_i_glide_lignum>
264

> <r_i_docking_score>
-5.77422050338684

> <r_i_glide_ligand_efficiency>
-0.186265177528608

> <r_i_glide_ligand_efficiency_sa>
-0.585129824232841

> <r_i_glide_ligand_efficiency_ln>
-1.30226368212024

> <r_glide_XP_GScore>
-5.77422050338684

> <r_i_glide_gscore>
-5.77422050338684

> <r_i_glide_evdw>
-45.9522399902344

> <r_i_glide_ecoul>
-11.5098695755005

> <r_i_glide_energy>
-57.4621095657349

> <r_i_glide_einternal>
4.48745203018188

> <r_i_glide_emodel>
-56.4605554562142

> <r_glide_XP_HBond>
0.0

> <i_i_glide_confnum>
1

> <i_i_glide_posenum>
1

> <r_i_glide_eff_state_penalty>
0.0

> <i_glide_XP_PoseRank>
1

> <MW>
433.16

> <cLogP>
3.56

> <TPSA>
63.49

> <Rotatable Bonds>
6

> <Fraction sp3>
0.26

> <HBA>
7

> <HBD>
0

> <s_epik_Chemistry_Notes>


> <Structure ID>


> <Submission Fragments>


$$$$
ligprep_COVID_compounds-withfrags-smallmolecules-forvalidation.maegz:4
                    3D
 Structure written by MMmdl.
 93 97  0  0  1  0            999 V2000
    4.5419    0.3840   20.8514 C   0  0  0  0  0  0
    5.3786    0.9053   22.0301 C   0  0  0  0  0  0
    5.5052   -0.1720   23.1310 C   0  0  0  0  0  0
    6.7742    1.2342   21.4952 C   0  0  0  0  0  0
    4.7559    2.1610   22.4789 N   0  0  0  0  0  0
    3.7354    2.3176   23.3443 C   0  0  0  0  0  0
    3.4360    1.5042   24.2138 O   0  0  0  0  0  0
    2.8426    3.5549   23.1712 C   0  0  2  0  0  0
    1.9245    3.2132   21.9792 C   0  0  0  0  0  0
    0.9826    4.2935   21.6971 N   0  0  0  0  0  0
    0.0721    3.8976   20.6190 C   0  0  0  0  0  0
   -0.8347    2.7480   21.0162 C   0  0  0  0  0  0
   -1.9322    2.9535   21.8733 C   0  0  0  0  0  0
   -2.7051    1.8435   22.2598 C   0  0  0  0  0  0
   -2.3358    0.5708   21.7846 C   0  0  0  0  0  0
   -1.2798    0.3604   20.9715 N   0  0  0  0  0  0
   -0.5593    1.4364   20.5857 C   0  0  0  0  0  0
    1.7809    5.4353   21.2779 C   0  0  0  0  0  0
    2.6362    5.8961   22.4689 C   0  0  0  0  0  0
    3.5745    4.8357   22.9419 N   0  3  1  0  0  0
    4.3910    5.2636   24.1069 C   0  0  0  0  0  0
    5.2125    6.5417   23.8297 C   0  0  2  0  0  0
    6.5404    6.5893   24.5962 C   0  0  0  0  0  0
    7.6389    5.6649   23.9981 C   0  0  1  0  0  0
    8.9584    6.4401   23.7358 C   0  0  0  0  0  0
    9.9014    6.6413   24.9223 C   0  0  0  0  0  0
    9.4243    7.0279   26.1952 C   0  0  0  0  0  0
   10.3239    7.3085   27.2424 C   0  0  0  0  0  0
   11.7088    7.1970   27.0290 C   0  0  0  0  0  0
   12.1907    6.7904   25.7719 C   0  0  0  0  0  0
   11.2964    6.5562   24.7212 C   0  0  0  0  0  0
    7.8777    4.3623   24.7830 C   0  0  0  0  0  0
    7.6363    4.3036   25.9913 O   0  0  0  0  0  0
    8.4236    3.3407   24.1082 N   0  0  0  0  0  0
    9.3359    2.4013   24.7470 C   0  0  2  0  0  0
   10.6411    2.3585   23.9972 C   0  0  0  0  0  0
   11.3067    3.4354   23.3844 C   0  0  0  0  0  0
   12.5288    3.2140   22.7229 C   0  0  0  0  0  0
   13.0526    1.9096   22.6527 C   0  0  0  0  0  0
   12.3342    0.8231   23.1910 C   0  0  0  0  0  0
   11.1255    1.0681   23.8700 C   0  0  0  0  0  0
   10.1577    0.0733   24.4559 C   0  0  0  0  0  0
    8.8877    0.9151   24.7811 C   0  0  1  0  0  0
    8.3753    0.5489   26.0498 O   0  0  0  0  0  0
    4.4668    7.6678   24.2531 O   0  0  0  0  0  0
    4.9372   -0.5547   20.4688 H   0  0  0  0  0  0
    4.5346    1.1017   20.0273 H   0  0  0  0  0  0
    3.5063    0.2348   21.1467 H   0  0  0  0  0  0
    4.5343   -0.5909   23.3986 H   0  0  0  0  0  0
    5.9576    0.2228   24.0381 H   0  0  0  0  0  0
    6.1111   -1.0121   22.7945 H   0  0  0  0  0  0
    7.3193    0.3245   21.2376 H   0  0  0  0  0  0
    7.3632    1.7898   22.2167 H   0  0  0  0  0  0
    6.7155    1.8364   20.5934 H   0  0  0  0  0  0
    5.0067    2.9578   21.8961 H   0  0  0  0  0  0
    2.2304    3.6705   24.0669 H   0  0  0  0  0  0
    2.5106    2.9911   21.0850 H   0  0  0  0  0  0
    1.3809    2.3025   22.2271 H   0  0  0  0  0  0
   -0.5541    4.7502   20.3522 H   0  0  0  0  0  0
    0.6353    3.6287   19.7222 H   0  0  0  0  0  0
   -2.1737    3.9425   22.2310 H   0  0  0  0  0  0
   -3.5524    1.9619   22.9148 H   0  0  0  0  0  0
   -2.9038   -0.3021   22.0674 H   0  0  0  0  0  0
    0.2822    1.2343   19.9442 H   0  0  0  0  0  0
    2.4112    5.1903   20.4188 H   0  0  0  0  0  0
    1.1229    6.2516   20.9674 H   0  0  0  0  0  0
    3.1859    6.7757   22.1442 H   0  0  0  0  0  0
    1.9907    6.2097   23.2928 H   0  0  0  0  0  0
    3.7634    5.3848   24.9904 H   0  0  0  0  0  0
    5.0785    4.4531   24.3442 H   0  0  0  0  0  0
    5.4300    6.6462   22.7638 H   0  0  0  0  0  0
    6.8949    7.6210   24.5816 H   0  0  0  0  0  0
    6.3532    6.3789   25.6487 H   0  0  0  0  0  0
    7.2937    5.3603   23.0151 H   0  0  0  0  0  0
    9.4971    5.9460   22.9250 H   0  0  0  0  0  0
    8.7388    7.4272   23.3285 H   0  0  0  0  0  0
    8.3705    7.1293   26.3871 H   0  0  0  0  0  0
    9.9480    7.5985   28.2131 H   0  0  0  0  0  0
   12.3971    7.3984   27.8347 H   0  0  0  0  0  0
   13.2483    6.6910   25.6100 H   0  0  0  0  0  0
   11.7043    6.3217   23.7515 H   0  0  0  0  0  0
    8.5184    3.4343   23.1073 H   0  0  0  0  0  0
    9.5766    2.7236   25.7600 H   0  0  0  0  0  0
   10.8761    4.4120   23.4178 H   0  0  0  0  0  0
   13.0579    4.0395   22.2695 H   0  0  0  0  0  0
   14.0030    1.7328   22.1720 H   0  0  0  0  0  0
   12.7240   -0.1651   23.0610 H   0  0  0  0  0  0
    9.9453   -0.7463   23.7727 H   0  0  0  0  0  0
   10.6052   -0.3450   25.3586 H   0  0  0  0  0  0
    8.1500    0.7246   24.0074 H   0  0  0  0  0  0
    7.4813    0.8744   26.1352 H   0  0  0  0  0  0
    4.0944    8.1018   23.4973 H   0  0  0  0  0  0
    4.2323    4.6573   22.1807 H   0  0  0  0  0  0
  1  2  1  0  0  0
  1 46  1  0  0  0
  1 47  1  0  0  0
  1 48  1  0  0  0
  2  3  1  0  0  0
  2  4  1  0  0  0
  2  5  1  0  0  0
  3 49  1  0  0  0
  3 50  1  0  0  0
  3 51  1  0  0  0
  4 52  1  0  0  0
  4 53  1  0  0  0
  4 54  1  0  0  0
  5  6  1  0  0  0
  5 55  1  0  0  0
  6  7  2  0  0  0
  6  8  1  0  0  0
  8  9  1  0  0  0
  8 20  1  0  0  0
  8 56  1  0  0  0
  9 10  1  0  0  0
  9 57  1  0  0  0
  9 58  1  0  0  0
 10 11  1  0  0  0
 10 18  1  0  0  0
 11 12  1  0  0  0
 11 59  1  0  0  0
 11 60  1  0  0  0
 12 13  2  0  0  0
 12 17  1  0  0  0
 13 14  1  0  0  0
 13 61  1  0  0  0
 14 15  2  0  0  0
 14 62  1  0  0  0
 15 16  1  0  0  0
 15 63  1  0  0  0
 16 17  2  0  0  0
 17 64  1  0  0  0
 18 19  1  0  0  0
 18 65  1  0  0  0
 18 66  1  0  0  0
 19 20  1  0  0  0
 19 67  1  0  0  0
 19 68  1  0  0  0
 20 21  1  0  0  0
 20 93  1  0  0  0
 21 22  1  0  0  0
 21 69  1  0  0  0
 21 70  1  0  0  0
 22 23  1  0  0  0
 22 45  1  0  0  0
 22 71  1  0  0  0
 23 24  1  0  0  0
 23 72  1  0  0  0
 23 73  1  0  0  0
 24 25  1  0  0  0
 24 32  1  0  0  0
 24 74  1  0  0  0
 25 26  1  0  0  0
 25 75  1  0  0  0
 25 76  1  0  0  0
 26 27  2  0  0  0
 26 31  1  0  0  0
 27 28  1  0  0  0
 27 77  1  0  0  0
 28 29  2  0  0  0
 28 78  1  0  0  0
 29 30  1  0  0  0
 29 79  1  0  0  0
 30 31  2  0  0  0
 30 80  1  0  0  0
 31 81  1  0  0  0
 32 33  2  0  0  0
 32 34  1  0  0  0
 34 35  1  0  0  0
 34 82  1  0  0  0
 35 36  1  0  0  0
 35 43  1  0  0  0
 35 83  1  0  0  0
 36 37  2  0  0  0
 36 41  1  0  0  0
 37 38  1  0  0  0
 37 84  1  0  0  0
 38 39  2  0  0  0
 38 85  1  0  0  0
 39 40  1  0  0  0
 39 86  1  0  0  0
 40 41  2  0  0  0
 40 87  1  0  0  0
 41 42  1  0  0  0
 42 43  1  0  0  0
 42 88  1  0  0  0
 42 89  1  0  0  0
 43 44  1  0  0  0
 43 90  1  0  0  0
 44 91  1  0  0  0
 45 92  1  0  0  0
M  CHG  1  20   1
M  END
> <s_m_entry_id>
119

> <s_m_entry_name>
Compounds-withfrags-for-validation-docking.1913

> <s_m_Source_Path>
/home/rodolpho/data/melina/maestro/glide-dock_XP_5RGK_M-PRO_VALIDATION

> <s_m_Source_File>
glide-dock_XP_5RGK_M-PRO_VALIDATION_pv.maegz

> <i_m_Source_File_Index>
119

> <CID>
Indinavir

> <Potency>
43.13

> <pIC50>
4.36522

> <Source>
https://doi.org/10.1101/2020.03.23.004580

> <smiles>
C(C(C([H])([H])[H])(C([H])([H])[H])N(C(=O)C1(C([H])([H])N(C(C2=C([H])C([H])=C([H])N=C2[H])([H])[H])C([H])([H])C([H])([H])N1C(C(C(C(C(C1=C([H])C([H])=C([H])C([H])=C1[H])([H])[H])(C(=O)N(C1(C2=C(C(=C(C([H])=C2C([H])([H])C1(O[H])[H])[H])[H])[H])[H])[H])[H])([H])[H])(O[H])[H])([H])[H])[H])[H])([H])([H])[H]

> <Outcome>
Inactive

> <StandardizerResult>
Clear Stereo (ID: ClearStereo)
Wedge Clean (ID: WedgeClean)
Mesomerize (ID: Mesomerize)
Tautomerize (ID: Tautomerize)
Aromatize (ID: Aromatize)
Add Explicit Hydrogens (ID: AddExplicitH)
Neutralize (ID: Neutralize)
Clean 2D (ID: Clean2D)

> <chiral flag>
0

> <version>
0

> <i_lp_mmshare_version>
41011

> <i_f3d_flags>
0

> <s_epik_input>
W2NIXTFuW2NIXVtjSF1bY0hdYzFbQ0gyXU4oW0NIMl1bQ0BIXTJDKD1PKVtOSF1DKFtDSDNdKShbQ0gzXSlbQ0gzXSlbQ0gyXVtDSDJdTjJbQ0gyXVtDQEBIXShbT0hdKVtDSDJdW0NAQEhdKFtDSDJdYzNbY0hdW2NIXVtjSF1bY0hdW2NIXTMpQyg9TylbTkhdW0NASF00W0NASF0oW09IXSlbQ0gyXWMoYzQ1KVtjSF1bY0hdW2NIXVtjSF01

> <s_epik_cmdline>
J2VwaWtfcHl0aG9uJywgJy1waHQnLCAnMC41JywgJy1waCcsICc3LjQnLCAnLXRuJywgJzgnLCAnLW1hJywgJzIwMCcsICctaW1hZScsICc8aW5maWxlLm1hZT4nLCAnLW9tYWUnLCAnPG91dGZpbGUubWFlPic=

> <r_epik_Ionization_Penalty>
0.3395

> <r_epik_Ionization_Penalty_Charging>
0.3352

> <r_epik_Ionization_Penalty_Neutral>
0.0044

> <r_epik_State_Penalty>
0.5191

> <r_epik_Charging_Adjusted_Penalty>
0.854238

> <i_epik_Tot_Q>
1

> <i_epik_Tot_abs_Q>
1

> <s_lp_Force_Field>
OPLS3

> <r_lp_Energy>
49.5709

> <b_lp_Chiralities_Consistent>
1

> <s_lp_Variant>
ligprep_COVID_compounds-withfrags-smallmolecules-forvalidation.maegz:4-1

> <i_glide_original_lignum>
20

> <s_i_glide_gridfile>
glide-grid_5RGK_M-PRO_COVID

> <i_i_glide_lignum>
20

> <r_i_docking_score>
-5.73885937586585

> <r_i_glide_ligand_efficiency>
-0.127530208352574

> <r_i_glide_ligand_efficiency_sa>
-0.453611343633913

> <r_i_glide_ligand_efficiency_ln>
-1.19393849434602

> <r_glide_XP_GScore>
-6.25793137586585

> <r_i_glide_gscore>
-6.25793137586585

> <r_i_glide_evdw>
-37.7096519470215

> <r_i_glide_ecoul>
-20.9922866821289

> <r_i_glide_energy>
-58.7019386291504

> <r_i_glide_einternal>
5.93237781524658

> <r_i_glide_emodel>
-90.1625621371798

> <r_glide_XP_HBond>
-1.81718040428205

> <i_i_glide_confnum>
2

> <i_i_glide_posenum>
16

> <r_i_glide_eff_state_penalty>
0.519072

> <i_glide_XP_PoseRank>
1

> <r_lp_tautomer_probability>


> <s_epik_Chemistry_Notes>


> <MW>


> <cLogP>


> <TPSA>


> <Rotatable Bonds>


> <Fraction sp3>


> <HBA>


> <HBD>


> <Structure ID>


> <Submission Fragments>


$$$$
ligprep_COVID_compounds-withfrags-smallmolecules-forvalidation.maegz:32
                    3D
 Structure written by MMmdl.
 60 63  0  0  1  0            999 V2000
    0.4353   -8.6540   22.5268 C   0  0  0  0  0  0
    1.0839   -8.5631   23.9058 C   0  0  0  0  0  0
    0.5750   -9.1768   24.8411 O   0  0  0  0  0  0
    2.3160   -7.7380   24.0364 C   0  0  0  0  0  0
    3.0208   -7.7241   25.2588 C   0  0  0  0  0  0
    4.1767   -6.9342   25.4088 C   0  0  0  0  0  0
    4.6630   -6.1292   24.3512 C   0  0  0  0  0  0
    5.8045   -5.2626   24.5448 N   0  0  0  0  0  0
    6.8690   -5.3635   23.6851 C   0  0  0  0  0  0
    6.7964   -5.8898   22.5706 O   0  0  0  0  0  0
    8.2020   -4.8899   24.1142 C   0  0  0  0  0  0
    9.1241   -5.4481   24.9596 C   0  0  0  0  0  0
   10.2343   -4.5643   24.9846 C   0  0  0  0  0  0
    9.9074   -3.5209   24.1710 C   0  0  0  0  0  0
    8.6968   -3.7313   23.5869 O   0  0  0  0  0  0
    5.5732   -4.1520   25.5325 C   0  0  2  0  0  0
    6.4352   -2.8549   25.4754 C   0  0  0  0  0  0
    7.3438   -2.6460   26.2832 O   0  0  0  0  0  0
    6.1444   -1.9869   24.4922 N   0  0  0  0  0  0
    6.8895   -0.7582   24.2092 C   0  0  0  0  0  0
    6.0659    0.2679   23.3965 C   0  0  0  0  0  0
    5.8921    0.0138   21.9015 C   0  0  0  0  0  0
    6.2632   -1.2023   21.2877 C   0  0  0  0  0  0
    6.0837   -1.3764   19.9031 C   0  0  0  0  0  0
    5.5636   -0.3463   19.1068 C   0  0  0  0  0  0
    5.1729    0.8593   19.7102 C   0  0  0  0  0  0
    4.6202    1.8327   18.9519 F   0  0  0  0  0  0
    5.3406    1.0401   21.0985 C   0  0  0  0  0  0
    5.6453   -4.6207   26.9615 C   0  0  0  0  0  0
    6.5608   -5.5916   27.4369 C   0  0  0  0  0  0
    6.5247   -5.9985   28.7830 C   0  0  0  0  0  0
    5.5748   -5.4122   29.6346 C   0  0  0  0  0  0
    4.6993   -4.4792   29.2179 N   0  0  0  0  0  0
    4.7516   -4.0974   27.9250 C   0  0  0  0  0  0
    3.9574   -6.1637   23.1248 C   0  0  0  0  0  0
    2.7971   -6.9499   22.9708 C   0  0  0  0  0  0
    0.0301   -7.6868   22.2311 H   0  0  0  0  0  0
   -0.3752   -9.3833   22.5375 H   0  0  0  0  0  0
    1.1651   -8.9731   21.7828 H   0  0  0  0  0  0
    2.6835   -8.3219   26.0959 H   0  0  0  0  0  0
    4.6825   -6.9781   26.3593 H   0  0  0  0  0  0
    9.0253   -6.3880   25.4854 H   0  0  0  0  0  0
   11.1591   -4.6816   25.5347 H   0  0  0  0  0  0
   10.4159   -2.6182   23.8773 H   0  0  0  0  0  0
    4.5528   -3.8100   25.3448 H   0  0  0  0  0  0
    5.3936   -2.2285   23.8526 H   0  0  0  0  0  0
    7.1736   -0.2969   25.1570 H   0  0  0  0  0  0
    7.8260   -0.9944   23.7002 H   0  0  0  0  0  0
    5.0743    0.3739   23.8394 H   0  0  0  0  0  0
    6.5462    1.2424   23.4961 H   0  0  0  0  0  0
    6.6824   -2.0163   21.8594 H   0  0  0  0  0  0
    6.3551   -2.3128   19.4463 H   0  0  0  0  0  0
    5.4191   -0.4969   18.0467 H   0  0  0  0  0  0
    5.0499    1.9828   21.5416 H   0  0  0  0  0  0
    7.2660   -6.0589   26.7712 H   0  0  0  0  0  0
    7.2004   -6.7609   29.1394 H   0  0  0  0  0  0
    5.5154   -5.7005   30.6732 H   0  0  0  0  0  0
    4.0265   -3.3509   27.6356 H   0  0  0  0  0  0
    4.2791   -5.5473   22.2986 H   0  0  0  0  0  0
    2.2895   -6.9238   22.0175 H   0  0  0  0  0  0
  1  2  1  0  0  0
  1 37  1  0  0  0
  1 38  1  0  0  0
  1 39  1  0  0  0
  2  3  2  0  0  0
  2  4  1  0  0  0
  4  5  2  0  0  0
  4 36  1  0  0  0
  5  6  1  0  0  0
  5 40  1  0  0  0
  6  7  2  0  0  0
  6 41  1  0  0  0
  7  8  1  0  0  0
  7 35  1  0  0  0
  8  9  1  0  0  0
  8 16  1  0  0  0
  9 10  2  0  0  0
  9 11  1  0  0  0
 11 12  2  0  0  0
 11 15  1  0  0  0
 12 13  1  0  0  0
 12 42  1  0  0  0
 13 14  2  0  0  0
 13 43  1  0  0  0
 14 15  1  0  0  0
 14 44  1  0  0  0
 16 17  1  0  0  0
 16 29  1  0  0  0
 16 45  1  0  0  0
 17 18  2  0  0  0
 17 19  1  0  0  0
 19 20  1  0  0  0
 19 46  1  0  0  0
 20 21  1  0  0  0
 20 47  1  0  0  0
 20 48  1  0  0  0
 21 22  1  0  0  0
 21 49  1  0  0  0
 21 50  1  0  0  0
 22 23  2  0  0  0
 22 28  1  0  0  0
 23 24  1  0  0  0
 23 51  1  0  0  0
 24 25  2  0  0  0
 24 52  1  0  0  0
 25 26  1  0  0  0
 25 53  1  0  0  0
 26 27  1  0  0  0
 26 28  2  0  0  0
 28 54  1  0  0  0
 29 30  2  0  0  0
 29 34  1  0  0  0
 30 31  1  0  0  0
 30 55  1  0  0  0
 31 32  2  0  0  0
 31 56  1  0  0  0
 32 33  1  0  0  0
 32 57  1  0  0  0
 33 34  2  0  0  0
 34 58  1  0  0  0
 35 36  2  0  0  0
 35 59  1  0  0  0
 36 60  1  0  0  0
M  END
> <s_m_entry_id>
127

> <s_m_entry_name>
Compounds-withfrags-for-validation-docking.1885

> <s_m_Source_Path>
/home/rodolpho/data/melina/maestro/glide-dock_XP_5RGK_M-PRO_VALIDATION

> <s_m_Source_File>
glide-dock_XP_5RGK_M-PRO_VALIDATION_pv.maegz

> <i_m_Source_File_Index>
127

> <CID>
ALP-POS-b0bc6a46-23

> <Potency>
56.282

> <pIC50>
4.24963

> <Source>
Postera

> <smiles>
CC(=O)c1ccc(N(C(=O)c2ccco2)C(C(=O)NCCc2cccc(F)c2)c2cccnc2)cc1

> <Outcome>
Inactive

> <StandardizerResult>
Clear Stereo (ID: ClearStereo)
Wedge Clean (ID: WedgeClean)
Mesomerize (ID: Mesomerize)
Tautomerize (ID: Tautomerize)
Aromatize (ID: Aromatize)
Add Explicit Hydrogens (ID: AddExplicitH)
Neutralize (ID: Neutralize)
Clean 2D (ID: Clean2D)

> <chiral flag>
0

> <version>
0

> <i_lp_mmshare_version>
41011

> <i_f3d_flags>
0

> <s_epik_input>
W0NIM11DKD1PKWMxW2NIXVtjSF1jKFtjSF1bY0hdMSlOKEMoPU8pYzJbY0hdW2NIXVtjSF1vMilbQ0BASF0oYzNbY0hdW2NIXVtjSF1uW2NIXTMpQyg9TylbTkhdW0NIMl1bQ0gyXWM0W2NIXVtjSF1bY0hdYyhGKVtjSF00

> <s_epik_cmdline>
J2VwaWtfcHl0aG9uJywgJy1waHQnLCAnMC41JywgJy1waCcsICc3LjQnLCAnLXRuJywgJzgnLCAnLW1hJywgJzIwMCcsICctaW1hZScsICc8aW5maWxlLm1hZT4nLCAnLW9tYWUnLCAnPG91dGZpbGUubWFlPic=

> <r_lp_tautomer_probability>
1.0

> <r_epik_Ionization_Penalty>
5.0E-4

> <r_epik_Ionization_Penalty_Charging>
0.0

> <r_epik_Ionization_Penalty_Neutral>
5.0E-4

> <r_epik_State_Penalty>
0.0

> <r_epik_Charging_Adjusted_Penalty>
0.0

> <i_epik_Tot_Q>
0

> <i_epik_Tot_abs_Q>
0

> <s_lp_Force_Field>
OPLS3

> <r_lp_Energy>
68.4094

> <b_lp_Chiralities_Consistent>
1

> <s_lp_Variant>
ligprep_COVID_compounds-withfrags-smallmolecules-forvalidation.maegz:32-2

> <i_glide_original_lignum>
166

> <s_i_glide_gridfile>
glide-grid_5RGK_M-PRO_COVID

> <i_i_glide_lignum>
166

> <r_i_docking_score>
-5.70803755438179

> <r_i_glide_ligand_efficiency>
-0.158556598732828

> <r_i_glide_ligand_efficiency_sa>
-0.5235423532226

> <r_i_glide_ligand_efficiency_ln>
-1.24533958101294

> <r_glide_XP_GScore>
-5.70803755438179

> <r_i_glide_gscore>
-5.70803755438179

> <r_i_glide_evdw>
-48.2171249389648

> <r_i_glide_ecoul>
-6.85582637786865

> <r_i_glide_energy>
-55.0729513168335

> <r_i_glide_einternal>
14.9751777648926

> <r_i_glide_emodel>
-69.895146738444

> <r_glide_XP_HBond>
-0.770145247420178

> <i_i_glide_confnum>
1

> <i_i_glide_posenum>
20

> <r_i_glide_eff_state_penalty>
0.0

> <i_glide_XP_PoseRank>
1

> <MW>
485.18

> <cLogP>
4.76

> <TPSA>
92.51

> <Rotatable Bonds>
9

> <Fraction sp3>
0.14

> <HBA>
5

> <HBD>
1

> <s_epik_Chemistry_Notes>


> <Structure ID>


> <Submission Fragments>


$$$$
ligprep_COVID_compounds-withfrags-smallmolecules-forvalidation.maegz:4
                    3D
 Structure written by MMmdl.
 93 97  0  0  1  0            999 V2000
    3.4728    7.4643   21.1868 C   0  0  0  0  0  0
    4.7603    8.2544   21.4840 C   0  0  0  0  0  0
    5.5759    8.4115   20.1895 C   0  0  0  0  0  0
    4.3674    9.6435   22.0324 C   0  0  0  0  0  0
    5.5534    7.4362   22.4115 N   0  0  0  0  0  0
    6.3367    7.7828   23.4584 C   0  0  0  0  0  0
    6.4856    8.9337   23.8615 O   0  0  0  0  0  0
    7.0908    6.6506   24.1823 C   0  0  2  0  0  0
    8.4983    6.5687   23.5214 C   0  0  0  0  0  0
    9.2010    5.3080   23.7732 N   0  0  0  0  0  0
   10.5339    5.4129   23.1716 C   0  0  0  0  0  0
   11.4267    4.1714   23.1232 C   0  0  0  0  0  0
   12.6187    4.2397   22.3776 C   0  0  0  0  0  0
   13.4423    3.1056   22.3102 C   0  0  0  0  0  0
   13.0428    1.9305   22.9706 C   0  0  0  0  0  0
   11.9078    1.8456   23.6882 N   0  0  0  0  0  0
   11.1363    2.9488   23.7707 C   0  0  0  0  0  0
    8.3217    4.2994   23.1875 C   0  0  0  0  0  0
    7.1737    4.1677   24.1984 C   0  0  0  0  0  0
    6.3105    5.3700   24.1575 N   0  3  1  0  0  0
    5.2144    5.3641   25.1737 C   0  0  0  0  0  0
    4.1746    4.2394   24.9825 C   0  0  2  0  0  0
    3.3388    4.3849   23.6843 C   0  0  0  0  0  0
    2.6805    3.0902   23.1304 C   0  0  2  0  0  0
    1.4129    2.7018   23.9336 C   0  0  0  0  0  0
    0.4925    1.6952   23.2525 C   0  0  0  0  0  0
    0.0416    1.8979   21.9284 C   0  0  0  0  0  0
   -0.8224    0.9660   21.3217 C   0  0  0  0  0  0
   -1.2554   -0.1646   22.0397 C   0  0  0  0  0  0
   -0.8251   -0.3637   23.3663 C   0  0  0  0  0  0
    0.0520    0.5595   23.9669 C   0  0  0  0  0  0
    3.7094    1.9499   22.9941 C   0  0  0  0  0  0
    3.5732    0.8918   23.6048 O   0  0  0  0  0  0
    4.7720    2.2363   22.2315 N   0  0  0  0  0  0
    6.0039    1.5092   21.9805 C   0  0  2  0  0  0
    5.8836    0.6157   20.7910 C   0  0  0  0  0  0
    5.5747    0.9891   19.4693 C   0  0  0  0  0  0
    5.5750   -0.0161   18.4793 C   0  0  0  0  0  0
    5.8680   -1.3538   18.8279 C   0  0  0  0  0  0
    6.1459   -1.6998   20.1696 C   0  0  0  0  0  0
    6.1468   -0.6958   21.1379 C   0  0  0  0  0  0
    6.4242   -0.8606   22.6073 C   0  0  0  0  0  0
    6.5230    0.5884   23.1293 C   0  0  1  0  0  0
    7.8808    0.8965   23.3708 O   0  0  0  0  0  0
    3.3014    4.2405   26.0925 O   0  0  0  0  0  0
    2.8475    7.9867   20.4618 H   0  0  0  0  0  0
    2.8774    7.3200   22.0897 H   0  0  0  0  0  0
    3.6870    6.4778   20.7731 H   0  0  0  0  0  0
    5.8383    7.4379   19.7713 H   0  0  0  0  0  0
    6.5028    8.9564   20.3688 H   0  0  0  0  0  0
    5.0156    8.9564   19.4286 H   0  0  0  0  0  0
    3.6780   10.1486   21.3556 H   0  0  0  0  0  0
    5.2314   10.2999   22.1393 H   0  0  0  0  0  0
    3.8737    9.5695   23.0019 H   0  0  0  0  0  0
    5.5745    6.4644   22.1238 H   0  0  0  0  0  0
    7.2379    6.9319   25.2269 H   0  0  0  0  0  0
    8.4197    6.7200   22.4405 H   0  0  0  0  0  0
    9.1043    7.3965   23.8938 H   0  0  0  0  0  0
   10.4642    5.8363   22.1708 H   0  0  0  0  0  0
   11.0841    6.1574   23.7491 H   0  0  0  0  0  0
   12.8984    5.1488   21.8656 H   0  0  0  0  0  0
   14.3747    3.1250   21.7702 H   0  0  0  0  0  0
   13.6569    1.0429   22.9327 H   0  0  0  0  0  0
   10.2752    2.8386   24.4115 H   0  0  0  0  0  0
    7.9748    4.5702   22.1865 H   0  0  0  0  0  0
    8.7961    3.3325   23.0664 H   0  0  0  0  0  0
    6.5884    3.2897   23.9507 H   0  0  0  0  0  0
    7.5626    4.0042   25.2055 H   0  0  0  0  0  0
    5.6661    5.2825   26.1644 H   0  0  0  0  0  0
    4.6885    6.3207   25.1566 H   0  0  0  0  0  0
    4.6936    3.2862   25.0253 H   0  0  0  0  0  0
    2.5827    5.1608   23.8149 H   0  0  0  0  0  0
    3.9750    4.7810   22.8950 H   0  0  0  0  0  0
    2.3672    3.3387   22.1166 H   0  0  0  0  0  0
    1.6974    2.3298   24.9187 H   0  0  0  0  0  0
    0.8146    3.5938   24.1194 H   0  0  0  0  0  0
    0.3467    2.7706   21.3701 H   0  0  0  0  0  0
   -1.1621    1.1254   20.3084 H   0  0  0  0  0  0
   -1.9239   -0.8748   21.5761 H   0  0  0  0  0  0
   -1.1614   -1.2284   23.9194 H   0  0  0  0  0  0
    0.3828    0.3939   24.9821 H   0  0  0  0  0  0
    4.7897    3.1585   21.7887 H   0  0  0  0  0  0
    6.7545    2.2591   21.7290 H   0  0  0  0  0  0
    5.3521    2.0161   19.2183 H   0  0  0  0  0  0
    5.3344    0.2301   17.4551 H   0  0  0  0  0  0
    5.8562   -2.1199   18.0656 H   0  0  0  0  0  0
    6.3749   -2.7088   20.4623 H   0  0  0  0  0  0
    5.5756   -1.3637   23.0693 H   0  0  0  0  0  0
    7.3172   -1.4575   22.7937 H   0  0  0  0  0  0
    6.0128    0.7108   24.0834 H   0  0  0  0  0  0
    8.3236    0.9391   22.5313 H   0  0  0  0  0  0
    2.7865    5.0339   26.0864 H   0  0  0  0  0  0
    5.8891    5.3097   23.2371 H   0  0  0  0  0  0
  1  2  1  0  0  0
  1 46  1  0  0  0
  1 47  1  0  0  0
  1 48  1  0  0  0
  2  3  1  0  0  0
  2  4  1  0  0  0
  2  5  1  0  0  0
  3 49  1  0  0  0
  3 50  1  0  0  0
  3 51  1  0  0  0
  4 52  1  0  0  0
  4 53  1  0  0  0
  4 54  1  0  0  0
  5  6  1  0  0  0
  5 55  1  0  0  0
  6  7  2  0  0  0
  6  8  1  0  0  0
  8  9  1  0  0  0
  8 20  1  0  0  0
  8 56  1  0  0  0
  9 10  1  0  0  0
  9 57  1  0  0  0
  9 58  1  0  0  0
 10 11  1  0  0  0
 10 18  1  0  0  0
 11 12  1  0  0  0
 11 59  1  0  0  0
 11 60  1  0  0  0
 12 13  2  0  0  0
 12 17  1  0  0  0
 13 14  1  0  0  0
 13 61  1  0  0  0
 14 15  2  0  0  0
 14 62  1  0  0  0
 15 16  1  0  0  0
 15 63  1  0  0  0
 16 17  2  0  0  0
 17 64  1  0  0  0
 18 19  1  0  0  0
 18 65  1  0  0  0
 18 66  1  0  0  0
 19 20  1  0  0  0
 19 67  1  0  0  0
 19 68  1  0  0  0
 20 21  1  0  0  0
 20 93  1  0  0  0
 21 22  1  0  0  0
 21 69  1  0  0  0
 21 70  1  0  0  0
 22 23  1  0  0  0
 22 45  1  0  0  0
 22 71  1  0  0  0
 23 24  1  0  0  0
 23 72  1  0  0  0
 23 73  1  0  0  0
 24 25  1  0  0  0
 24 32  1  0  0  0
 24 74  1  0  0  0
 25 26  1  0  0  0
 25 75  1  0  0  0
 25 76  1  0  0  0
 26 27  2  0  0  0
 26 31  1  0  0  0
 27 28  1  0  0  0
 27 77  1  0  0  0
 28 29  2  0  0  0
 28 78  1  0  0  0
 29 30  1  0  0  0
 29 79  1  0  0  0
 30 31  2  0  0  0
 30 80  1  0  0  0
 31 81  1  0  0  0
 32 33  2  0  0  0
 32 34  1  0  0  0
 34 35  1  0  0  0
 34 82  1  0  0  0
 35 36  1  0  0  0
 35 43  1  0  0  0
 35 83  1  0  0  0
 36 37  2  0  0  0
 36 41  1  0  0  0
 37 38  1  0  0  0
 37 84  1  0  0  0
 38 39  2  0  0  0
 38 85  1  0  0  0
 39 40  1  0  0  0
 39 86  1  0  0  0
 40 41  2  0  0  0
 40 87  1  0  0  0
 41 42  1  0  0  0
 42 43  1  0  0  0
 42 88  1  0  0  0
 42 89  1  0  0  0
 43 44  1  0  0  0
 43 90  1  0  0  0
 44 91  1  0  0  0
 45 92  1  0  0  0
M  CHG  1  20   1
M  END
> <s_m_entry_id>
129

> <s_m_entry_name>
Compounds-withfrags-for-validation-docking.1913

> <s_m_Source_Path>
/home/rodolpho/data/melina/maestro/glide-dock_XP_5RGK_M-PRO_VALIDATION

> <s_m_Source_File>
glide-dock_XP_5RGK_M-PRO_VALIDATION_pv.maegz

> <i_m_Source_File_Index>
129

> <CID>
Indinavir

> <Potency>
43.13

> <pIC50>
4.36522

> <Source>
https://doi.org/10.1101/2020.03.23.004580

> <smiles>
C(C(C([H])([H])[H])(C([H])([H])[H])N(C(=O)C1(C([H])([H])N(C(C2=C([H])C([H])=C([H])N=C2[H])([H])[H])C([H])([H])C([H])([H])N1C(C(C(C(C(C1=C([H])C([H])=C([H])C([H])=C1[H])([H])[H])(C(=O)N(C1(C2=C(C(=C(C([H])=C2C([H])([H])C1(O[H])[H])[H])[H])[H])[H])[H])[H])([H])[H])(O[H])[H])([H])[H])[H])[H])([H])([H])[H]

> <Outcome>
Inactive

> <StandardizerResult>
Clear Stereo (ID: ClearStereo)
Wedge Clean (ID: WedgeClean)
Mesomerize (ID: Mesomerize)
Tautomerize (ID: Tautomerize)
Aromatize (ID: Aromatize)
Add Explicit Hydrogens (ID: AddExplicitH)
Neutralize (ID: Neutralize)
Clean 2D (ID: Clean2D)

> <chiral flag>
0

> <version>
0

> <i_lp_mmshare_version>
41011

> <i_f3d_flags>
0

> <s_epik_input>
W2NIXTFuW2NIXVtjSF1bY0hdYzFbQ0gyXU4oW0NIMl1bQ0BIXTJDKD1PKVtOSF1DKFtDSDNdKShbQ0gzXSlbQ0gzXSlbQ0gyXVtDSDJdTjJbQ0gyXVtDQEBIXShbT0hdKVtDSDJdW0NASF0oW0NIMl1jM1tjSF1bY0hdW2NIXVtjSF1bY0hdMylDKD1PKVtOSF1bQ0BIXTRbQ0BIXShbT0hdKVtDSDJdYyhjNDUpW2NIXVtjSF1bY0hdW2NIXTU=

> <s_epik_cmdline>
J2VwaWtfcHl0aG9uJywgJy1waHQnLCAnMC41JywgJy1waCcsICc3LjQnLCAnLXRuJywgJzgnLCAnLW1hJywgJzIwMCcsICctaW1hZScsICc8aW5maWxlLm1hZT4nLCAnLW9tYWUnLCAnPG91dGZpbGUubWFlPic=

> <r_epik_Ionization_Penalty>
0.3395

> <r_epik_Ionization_Penalty_Charging>
0.3352

> <r_epik_Ionization_Penalty_Neutral>
0.0044

> <r_epik_State_Penalty>
0.5191

> <r_epik_Charging_Adjusted_Penalty>
0.854238

> <i_epik_Tot_Q>
1

> <i_epik_Tot_abs_Q>
1

> <s_lp_Force_Field>
OPLS3

> <r_lp_Energy>
55.6704

> <b_lp_Chiralities_Consistent>
1

> <s_lp_Variant>
ligprep_COVID_compounds-withfrags-smallmolecules-forvalidation.maegz:4-29

> <i_glide_original_lignum>
48

> <s_i_glide_gridfile>
glide-grid_5RGK_M-PRO_COVID

> <i_i_glide_lignum>
48

> <r_i_docking_score>
-5.69227956551998

> <r_i_glide_ligand_efficiency>
-0.126495101456

> <r_i_glide_ligand_efficiency_sa>
-0.449929578848726

> <r_i_glide_ligand_efficiency_ln>
-1.18424781803059

> <r_glide_XP_GScore>
-6.21135156551998

> <r_i_glide_gscore>
-6.21135156551998

> <r_i_glide_evdw>
-42.594310760498

> <r_i_glide_ecoul>
-19.5393333435059

> <r_i_glide_energy>
-62.1336441040039

> <r_i_glide_einternal>
22.0421152708532

> <r_i_glide_emodel>
-81.0406723022461

> <r_glide_XP_HBond>
-1.8975

> <i_i_glide_confnum>
1

> <i_i_glide_posenum>
1

> <r_i_glide_eff_state_penalty>
0.519072

> <i_glide_XP_PoseRank>
1

> <r_lp_tautomer_probability>


> <s_epik_Chemistry_Notes>


> <MW>


> <cLogP>


> <TPSA>


> <Rotatable Bonds>


> <Fraction sp3>


> <HBA>


> <HBD>


> <Structure ID>


> <Submission Fragments>


$$$$
ligprep_COVID_compounds-withfrags-smallmolecules-forvalidation.maegz:4
                    3D
 Structure written by MMmdl.
 93 97  0  0  1  0            999 V2000
    5.6054    7.0154   25.4830 C   0  0  0  0  0  0
    5.2571    7.1365   23.9789 C   0  0  0  0  0  0
    4.4280    8.4056   23.7027 C   0  0  0  0  0  0
    6.5618    7.2195   23.1628 C   0  0  0  0  0  0
    4.5403    5.9440   23.5209 N   0  0  0  0  0  0
    3.3510    5.4632   23.9403 C   0  0  0  0  0  0
    2.6759    5.9914   24.8304 O   0  0  0  0  0  0
    2.8122    4.1899   23.2606 C   0  0  1  0  0  0
    1.9011    4.6552   22.0904 C   0  0  0  0  0  0
    1.3382    3.5040   21.3834 N   0  0  0  0  0  0
    0.4096    3.9535   20.3420 C   0  0  0  0  0  0
   -0.9266    4.4118   20.8985 C   0  0  0  0  0  0
   -1.7048    3.5514   21.7066 C   0  0  0  0  0  0
   -2.9518    4.0032   22.1774 C   0  0  0  0  0  0
   -3.3717    5.3045   21.8238 C   0  0  0  0  0  0
   -2.6377    6.1354   21.0491 N   0  0  0  0  0  0
   -1.4414    5.6942   20.6021 C   0  0  0  0  0  0
    2.4659    2.7937   20.7795 C   0  0  0  0  0  0
    3.2964    2.1970   21.9157 C   0  0  0  0  0  0
    3.8760    3.2345   22.7983 N   0  3  2  0  0  0
    4.6498    2.6140   23.9099 C   0  0  0  0  0  0
    6.1619    2.3943   23.6403 C   0  0  1  0  0  0
    6.5746    1.3938   22.5459 C   0  0  0  0  0  0
    6.1290   -0.0880   22.7453 C   0  0  1  0  0  0
    6.2689   -1.0110   21.5037 C   0  0  0  0  0  0
    6.1490   -0.3352   20.1529 C   0  0  0  0  0  0
    4.8930    0.0778   19.6894 C   0  0  0  0  0  0
    4.7769    0.8146   18.5011 C   0  0  0  0  0  0
    5.9196    1.0988   17.7413 C   0  0  0  0  0  0
    7.1725    0.6342   18.1705 C   0  0  0  0  0  0
    7.2874   -0.0832   19.3713 C   0  0  0  0  0  0
    6.8586   -0.7281   23.9358 C   0  0  0  0  0  0
    7.9506   -0.2964   24.3118 O   0  0  0  0  0  0
    6.2361   -1.7323   24.5608 N   0  0  0  0  0  0
    6.6652   -2.2757   25.8456 C   0  0  2  0  0  0
    7.6582   -3.4116   25.7328 C   0  0  0  0  0  0
    8.8944   -3.4085   25.0521 C   0  0  0  0  0  0
    9.6841   -4.5777   25.0923 C   0  0  0  0  0  0
    9.2487   -5.7171   25.8042 C   0  0  0  0  0  0
    8.0093   -5.7020   26.4825 C   0  0  0  0  0  0
    7.2247   -4.5364   26.4235 C   0  0  0  0  0  0
    5.8679   -4.3258   27.0445 C   0  0  0  0  0  0
    5.4692   -2.8837   26.6326 C   0  0  1  0  0  0
    5.1819   -2.1028   27.7746 O   0  0  0  0  0  0
    6.7774    3.6313   23.3721 O   0  0  0  0  0  0
    6.2200    7.8496   25.8144 H   0  0  0  0  0  0
    6.1534    6.0953   25.6944 H   0  0  0  0  0  0
    4.7054    7.0162   26.1052 H   0  0  0  0  0  0
    3.5076    8.4339   24.2902 H   0  0  0  0  0  0
    4.1525    8.4695   22.6463 H   0  0  0  0  0  0
    4.9820    9.3056   23.9556 H   0  0  0  0  0  0
    7.1403    8.1000   23.4414 H   0  0  0  0  0  0
    6.3584    7.2847   22.0889 H   0  0  0  0  0  0
    7.2006    6.3474   23.3302 H   0  0  0  0  0  0
    5.0168    5.4447   22.7662 H   0  0  0  0  0  0
    2.1870    3.6650   23.9865 H   0  0  0  0  0  0
    1.0852    5.2727   22.4804 H   0  0  0  0  0  0
    2.4660    5.2815   21.3875 H   0  0  0  0  0  0
    0.8554    4.7454   19.7399 H   0  0  0  0  0  0
    0.1951    3.1192   19.6679 H   0  0  0  0  0  0
   -1.3460    2.5641   21.9531 H   0  0  0  0  0  0
   -3.5749    3.3665   22.7905 H   0  0  0  0  0  0
   -4.3207    5.6893   22.1711 H   0  0  0  0  0  0
   -0.8842    6.3877   19.9895 H   0  0  0  0  0  0
    2.1041    1.9952   20.1333 H   0  0  0  0  0  0
    3.0708    3.4567   20.1562 H   0  0  0  0  0  0
    2.6912    1.4895   22.4894 H   0  0  0  0  0  0
    4.1150    1.6396   21.4923 H   0  0  0  0  0  0
    4.5833    3.2361   24.8024 H   0  0  0  0  0  0
    4.1719    1.6740   24.1845 H   0  0  0  0  0  0
    6.6277    2.0669   24.5708 H   0  0  0  0  0  0
    6.2952    1.7928   21.5753 H   0  0  0  0  0  0
    7.6630    1.4073   22.5531 H   0  0  0  0  0  0
    5.0660   -0.0596   22.9816 H   0  0  0  0  0  0
    7.1771   -1.5936   21.5309 H   0  0  0  0  0  0
    5.4947   -1.7628   21.5401 H   0  0  0  0  0  0
    4.0114   -0.1399   20.2713 H   0  0  0  0  0  0
    3.8090    1.1626   18.1717 H   0  0  0  0  0  0
    5.8292    1.6826   16.8382 H   0  0  0  0  0  0
    8.0543    0.8781   17.6058 H   0  0  0  0  0  0
    8.2589   -0.3976   19.7087 H   0  0  0  0  0  0
    5.3888   -2.1080   24.1558 H   0  0  0  0  0  0
    7.1400   -1.4935   26.4404 H   0  0  0  0  0  0
    9.2367   -2.5380   24.5160 H   0  0  0  0  0  0
   10.6361   -4.6062   24.5794 H   0  0  0  0  0  0
    9.8722   -6.6001   25.8326 H   0  0  0  0  0  0
    7.6833   -6.5589   27.0487 H   0  0  0  0  0  0
    5.1590   -5.0598   26.6572 H   0  0  0  0  0  0
    5.9309   -4.4483   28.1270 H   0  0  0  0  0  0
    4.5718   -2.9296   26.0115 H   0  0  0  0  0  0
    5.0881   -1.2015   27.5030 H   0  0  0  0  0  0
    6.4918    3.9505   22.5060 H   0  0  0  0  0  0
    4.5377    3.7686   22.2217 H   0  0  0  0  0  0
  1  2  1  0  0  0
  1 46  1  0  0  0
  1 47  1  0  0  0
  1 48  1  0  0  0
  2  3  1  0  0  0
  2  4  1  0  0  0
  2  5  1  0  0  0
  3 49  1  0  0  0
  3 50  1  0  0  0
  3 51  1  0  0  0
  4 52  1  0  0  0
  4 53  1  0  0  0
  4 54  1  0  0  0
  5  6  1  0  0  0
  5 55  1  0  0  0
  6  7  2  0  0  0
  6  8  1  0  0  0
  8  9  1  0  0  0
  8 20  1  0  0  0
  8 56  1  0  0  0
  9 10  1  0  0  0
  9 57  1  0  0  0
  9 58  1  0  0  0
 10 11  1  0  0  0
 10 18  1  0  0  0
 11 12  1  0  0  0
 11 59  1  0  0  0
 11 60  1  0  0  0
 12 13  2  0  0  0
 12 17  1  0  0  0
 13 14  1  0  0  0
 13 61  1  0  0  0
 14 15  2  0  0  0
 14 62  1  0  0  0
 15 16  1  0  0  0
 15 63  1  0  0  0
 16 17  2  0  0  0
 17 64  1  0  0  0
 18 19  1  0  0  0
 18 65  1  0  0  0
 18 66  1  0  0  0
 19 20  1  0  0  0
 19 67  1  0  0  0
 19 68  1  0  0  0
 20 21  1  0  0  0
 20 93  1  0  0  0
 21 22  1  0  0  0
 21 69  1  0  0  0
 21 70  1  0  0  0
 22 23  1  0  0  0
 22 45  1  0  0  0
 22 71  1  0  0  0
 23 24  1  0  0  0
 23 72  1  0  0  0
 23 73  1  0  0  0
 24 25  1  0  0  0
 24 32  1  0  0  0
 24 74  1  0  0  0
 25 26  1  0  0  0
 25 75  1  0  0  0
 25 76  1  0  0  0
 26 27  2  0  0  0
 26 31  1  0  0  0
 27 28  1  0  0  0
 27 77  1  0  0  0
 28 29  2  0  0  0
 28 78  1  0  0  0
 29 30  1  0  0  0
 29 79  1  0  0  0
 30 31  2  0  0  0
 30 80  1  0  0  0
 31 81  1  0  0  0
 32 33  2  0  0  0
 32 34  1  0  0  0
 34 35  1  0  0  0
 34 82  1  0  0  0
 35 36  1  0  0  0
 35 43  1  0  0  0
 35 83  1  0  0  0
 36 37  2  0  0  0
 36 41  1  0  0  0
 37 38  1  0  0  0
 37 84  1  0  0  0
 38 39  2  0  0  0
 38 85  1  0  0  0
 39 40  1  0  0  0
 39 86  1  0  0  0
 40 41  2  0  0  0
 40 87  1  0  0  0
 41 42  1  0  0  0
 42 43  1  0  0  0
 42 88  1  0  0  0
 42 89  1  0  0  0
 43 44  1  0  0  0
 43 90  1  0  0  0
 44 91  1  0  0  0
 45 92  1  0  0  0
M  CHG  1  20   1
M  END
> <s_m_entry_id>
138

> <s_m_entry_name>
Compounds-withfrags-for-validation-docking.1913

> <s_m_Source_Path>
/home/rodolpho/data/melina/maestro/glide-dock_XP_5RGK_M-PRO_VALIDATION

> <s_m_Source_File>
glide-dock_XP_5RGK_M-PRO_VALIDATION_pv.maegz

> <i_m_Source_File_Index>
138

> <CID>
Indinavir

> <Potency>
43.13

> <pIC50>
4.36522

> <Source>
https://doi.org/10.1101/2020.03.23.004580

> <smiles>
C(C(C([H])([H])[H])(C([H])([H])[H])N(C(=O)C1(C([H])([H])N(C(C2=C([H])C([H])=C([H])N=C2[H])([H])[H])C([H])([H])C([H])([H])N1C(C(C(C(C(C1=C([H])C([H])=C([H])C([H])=C1[H])([H])[H])(C(=O)N(C1(C2=C(C(=C(C([H])=C2C([H])([H])C1(O[H])[H])[H])[H])[H])[H])[H])[H])([H])[H])(O[H])[H])([H])[H])[H])[H])([H])([H])[H]

> <Outcome>
Inactive

> <StandardizerResult>
Clear Stereo (ID: ClearStereo)
Wedge Clean (ID: WedgeClean)
Mesomerize (ID: Mesomerize)
Tautomerize (ID: Tautomerize)
Aromatize (ID: Aromatize)
Add Explicit Hydrogens (ID: AddExplicitH)
Neutralize (ID: Neutralize)
Clean 2D (ID: Clean2D)

> <chiral flag>
0

> <version>
0

> <i_lp_mmshare_version>
41011

> <i_f3d_flags>
0

> <s_epik_input>
W2NIXTFuW2NIXVtjSF1bY0hdYzFbQ0gyXU4oW0NIMl1bQ0BASF0yQyg9TylbTkhdQyhbQ0gzXSkoW0NIM10pW0NIM10pW0NIMl1bQ0gyXU4yW0NIMl1bQ0BIXShbT0hdKVtDSDJdW0NAQEhdKFtDSDJdYzNbY0hdW2NIXVtjSF1bY0hdW2NIXTMpQyg9TylbTkhdW0NASF00W0NASF0oW09IXSlbQ0gyXWMoYzQ1KVtjSF1bY0hdW2NIXVtjSF01

> <s_epik_cmdline>
J2VwaWtfcHl0aG9uJywgJy1waHQnLCAnMC41JywgJy1waCcsICc3LjQnLCAnLXRuJywgJzgnLCAnLW1hJywgJzIwMCcsICctaW1hZScsICc8aW5maWxlLm1hZT4nLCAnLW9tYWUnLCAnPG91dGZpbGUubWFlPic=

> <r_epik_Ionization_Penalty>
0.3395

> <r_epik_Ionization_Penalty_Charging>
0.3352

> <r_epik_Ionization_Penalty_Neutral>
0.0044

> <r_epik_State_Penalty>
0.5191

> <r_epik_Charging_Adjusted_Penalty>
0.854238

> <i_epik_Tot_Q>
1

> <i_epik_Tot_abs_Q>
1

> <s_lp_Force_Field>
OPLS3

> <r_lp_Energy>
50.0708

> <b_lp_Chiralities_Consistent>
1

> <s_lp_Variant>
ligprep_COVID_compounds-withfrags-smallmolecules-forvalidation.maegz:4-2

> <i_glide_original_lignum>
21

> <s_i_glide_gridfile>
glide-grid_5RGK_M-PRO_COVID

> <i_i_glide_lignum>
21

> <r_i_docking_score>
-5.64759258802165

> <r_i_glide_ligand_efficiency>
-0.125502057511592

> <r_i_glide_ligand_efficiency_sa>
-0.446397427496281

> <r_i_glide_ligand_efficiency_ln>
-1.17495093529887

> <r_glide_XP_GScore>
-6.16666458802165

> <r_i_glide_gscore>
-6.16666458802165

> <r_i_glide_evdw>
-28.1812648773193

> <r_i_glide_ecoul>
-20.783878326416

> <r_i_glide_energy>
-48.9651432037354

> <r_i_glide_einternal>
6.9053783416748

> <r_i_glide_emodel>
-80.1545628949892

> <r_glide_XP_HBond>
-1.56355503679016

> <i_i_glide_confnum>
3

> <i_i_glide_posenum>
39

> <r_i_glide_eff_state_penalty>
0.519072

> <i_glide_XP_PoseRank>
1

> <r_lp_tautomer_probability>


> <s_epik_Chemistry_Notes>


> <MW>


> <cLogP>


> <TPSA>


> <Rotatable Bonds>


> <Fraction sp3>


> <HBA>


> <HBD>


> <Structure ID>


> <Submission Fragments>


$$$$
ligprep_COVID_compounds-withfrags-smallmolecules-forvalidation.maegz:89
                    3D
 Structure written by MMmdl.
 47 49  0  0  1  0            999 V2000
    9.7861    4.5599   23.5221 C   0  0  0  0  0  0
   10.9502    3.5986   23.3696 C   0  0  0  0  0  0
   12.1458    4.0346   22.7658 C   0  0  0  0  0  0
   13.1804    3.1035   22.5707 C   0  0  0  0  0  0
   13.1072    1.8172   22.9701 N   0  0  0  0  0  0
   11.9743    1.4059   23.5658 C   0  0  0  0  0  0
   10.8545    2.2488   23.7710 C   0  0  0  0  0  0
    9.6164    1.7496   24.2434 N   0  0  0  0  0  0
    9.4227    0.7318   25.0945 C   0  0  0  0  0  0
   10.3201    0.2289   25.7713 O   0  0  0  0  0  0
    7.9767    0.2591   25.2393 C   0  0  0  0  0  0
    7.6872   -0.9196   24.3272 C   0  0  0  0  0  0
    8.1014   -2.2187   24.6896 C   0  0  0  0  0  0
    7.8396   -3.3054   23.8349 C   0  0  0  0  0  0
    8.3528   -4.8937   24.2700 Cl  0  0  0  0  0  0
    7.1749   -3.0942   22.6121 C   0  0  0  0  0  0
    6.7748   -1.7984   22.2276 C   0  0  0  0  0  0
    6.1779   -1.6355   20.9675 N   0  0  0  0  0  0
    6.3647   -0.4036   20.2094 C   0  0  2  0  0  0
    5.1117    0.4772   20.1544 C   0  0  0  0  0  0
    5.1265    1.1512   18.7731 C   0  0  0  0  0  0
    6.3764    0.6449   18.0428 C   0  0  0  0  0  0
    6.7439   -0.6611   18.7438 C   0  0  2  0  0  0
    5.9728   -1.6972   18.1708 O   0  0  0  0  0  0
    7.0018   -0.7166   23.1088 C   0  0  0  0  0  0
    9.4471    4.5902   24.5576 H   0  0  0  0  0  0
    8.9538    4.2487   22.8897 H   0  0  0  0  0  0
   10.0678    5.5706   23.2277 H   0  0  0  0  0  0
   12.2542    5.0513   22.4180 H   0  0  0  0  0  0
   14.0999    3.4027   22.0898 H   0  0  0  0  0  0
   11.9459    0.3578   23.8209 H   0  0  0  0  0  0
    8.7865    2.1919   23.8704 H   0  0  0  0  0  0
    7.7752   -0.0093   26.2780 H   0  0  0  0  0  0
    7.3135    1.0817   24.9707 H   0  0  0  0  0  0
    8.6243   -2.3829   25.6211 H   0  0  0  0  0  0
    6.9969   -3.9303   21.9534 H   0  0  0  0  0  0
    6.1383   -2.4586   20.3782 H   0  0  0  0  0  0
    7.1737    0.1868   20.6423 H   0  0  0  0  0  0
    4.2120   -0.1256   20.2553 H   0  0  0  0  0  0
    5.1058    1.2092   20.9630 H   0  0  0  0  0  0
    4.2321    0.8731   18.2161 H   0  0  0  0  0  0
    5.1278    2.2355   18.8520 H   0  0  0  0  0  0
    6.2039    0.5355   16.9723 H   0  0  0  0  0  0
    7.1884    1.3596   18.1686 H   0  0  0  0  0  0
    7.8002   -0.9173   18.6385 H   0  0  0  0  0  0
    5.0777   -1.4101   18.0381 H   0  0  0  0  0  0
    6.6837    0.2787   22.8359 H   0  0  0  0  0  0
  1  2  1  0  0  0
  1 26  1  0  0  0
  1 27  1  0  0  0
  1 28  1  0  0  0
  2  3  2  0  0  0
  2  7  1  0  0  0
  3  4  1  0  0  0
  3 29  1  0  0  0
  4  5  2  0  0  0
  4 30  1  0  0  0
  5  6  1  0  0  0
  6  7  2  0  0  0
  6 31  1  0  0  0
  7  8  1  0  0  0
  8  9  1  0  0  0
  8 32  1  0  0  0
  9 10  2  0  0  0
  9 11  1  0  0  0
 11 12  1  0  0  0
 11 33  1  0  0  0
 11 34  1  0  0  0
 12 13  2  0  0  0
 12 25  1  0  0  0
 13 14  1  0  0  0
 13 35  1  0  0  0
 14 15  1  0  0  0
 14 16  2  0  0  0
 16 17  1  0  0  0
 16 36  1  0  0  0
 17 18  1  0  0  0
 17 25  2  0  0  0
 18 19  1  0  0  0
 18 37  1  0  0  0
 19 20  1  0  0  0
 19 23  1  0  0  0
 19 38  1  0  0  0
 20 21  1  0  0  0
 20 39  1  0  0  0
 20 40  1  0  0  0
 21 22  1  0  0  0
 21 41  1  0  0  0
 21 42  1  0  0  0
 22 23  1  0  0  0
 22 43  1  0  0  0
 22 44  1  0  0  0
 23 24  1  0  0  0
 23 45  1  0  0  0
 24 46  1  0  0  0
 25 47  1  0  0  0
M  END
> <s_m_entry_id>
140

> <s_m_entry_name>
Compounds-withfrags-for-validation-docking.1828

> <s_m_Source_Path>
/home/rodolpho/data/melina/maestro/glide-dock_XP_5RGK_M-PRO_VALIDATION

> <s_m_Source_File>
glide-dock_XP_5RGK_M-PRO_VALIDATION_pv.maegz

> <i_m_Source_File_Index>
140

> <CID>
MAT-POS-044491d2-1

> <Potency>
19.7025

> <pIC50>
4.70548

> <Source>
Postera

> <smiles>
Cc1ccncc1NC(=O)Cc1cc(Cl)cc(NC2CCCC2O)c1

> <Outcome>
Inactive

> <StandardizerResult>
Clear Stereo (ID: ClearStereo)
Wedge Clean (ID: WedgeClean)
Mesomerize (ID: Mesomerize)
Tautomerize (ID: Tautomerize)
Aromatize (ID: Aromatize)
Add Explicit Hydrogens (ID: AddExplicitH)
Neutralize (ID: Neutralize)
Clean 2D (ID: Clean2D)

> <chiral flag>
0

> <version>
0

> <i_lp_mmshare_version>
41011

> <i_f3d_flags>
0

> <s_epik_input>
W0NIM11jMVtjSF1bY0hdbltjSF1jMVtOSF1DKD1PKVtDSDJdYzJbY0hdYyhDbClbY0hdYyhbY0hdMilbTkhdW0NAQEhdM1tDSDJdW0NIMl1bQ0gyXVtDQEBIXTNbT0hd

> <s_epik_cmdline>
J2VwaWtfcHl0aG9uJywgJy1waHQnLCAnMC41JywgJy1waCcsICc3LjQnLCAnLXRuJywgJzgnLCAnLW1hJywgJzIwMCcsICctaW1hZScsICc8aW5maWxlLm1hZT4nLCAnLW9tYWUnLCAnPG91dGZpbGUubWFlPic=

> <r_lp_tautomer_probability>
1.0

> <r_epik_Ionization_Penalty>
0.0032

> <r_epik_Ionization_Penalty_Charging>
0.0

> <r_epik_Ionization_Penalty_Neutral>
0.0032

> <r_epik_State_Penalty>
0.0

> <r_epik_Charging_Adjusted_Penalty>
0.0

> <i_epik_Tot_Q>
0

> <i_epik_Tot_abs_Q>
0

> <s_lp_Force_Field>
OPLS3

> <r_lp_Energy>
47.6115

> <b_lp_Chiralities_Consistent>
1

> <s_lp_Variant>
ligprep_COVID_compounds-withfrags-smallmolecules-forvalidation.maegz:89-3

> <i_glide_original_lignum>
275

> <s_i_glide_gridfile>
glide-grid_5RGK_M-PRO_COVID

> <i_i_glide_lignum>
275

> <r_i_docking_score>
-5.64235148258857

> <r_i_glide_ligand_efficiency>
-0.225694059303543

> <r_i_glide_ligand_efficiency_sa>
-0.659933432104745

> <r_i_glide_ligand_efficiency_ln>
-1.33740638900289

> <r_glide_XP_GScore>
-5.64235148258857

> <r_i_glide_gscore>
-5.64235148258857

> <r_i_glide_evdw>
-38.8740577697754

> <r_i_glide_ecoul>
-9.20977973937988

> <r_i_glide_energy>
-48.0838375091553

> <r_i_glide_einternal>
7.29226732254028

> <r_i_glide_emodel>
-61.5782018907674

> <r_glide_XP_HBond>
-1.56368127603578

> <i_i_glide_confnum>
1

> <i_i_glide_posenum>
4

> <r_i_glide_eff_state_penalty>
0.0

> <i_glide_XP_PoseRank>
1

> <MW>
359.14

> <cLogP>
3.55

> <TPSA>
74.25

> <Rotatable Bonds>
5

> <Fraction sp3>
0.37

> <HBA>
4

> <HBD>
3

> <Structure ID>
x11764

> <s_epik_Chemistry_Notes>


> <Submission Fragments>


$$$$
ligprep_COVID_compounds-withfrags-smallmolecules-forvalidation.maegz:78
                    3D
 Structure written by MMmdl.
 50 53  0  0  1  0            999 V2000
    3.8452    1.8342   19.5231 C   0  0  0  0  0  0
    5.0554    1.0359   19.3915 N   0  0  0  0  0  0
    5.3747    0.4832   18.0820 C   0  0  0  0  0  0
    5.5251    0.3847   20.5519 C   0  0  0  0  0  0
    5.9618   -0.9585   20.5139 C   0  0  0  0  0  0
    6.3944   -1.6006   21.6855 C   0  0  0  0  0  0
    6.5198   -0.8969   22.9047 C   0  0  0  0  0  0
    7.1988   -1.5825   24.1012 C   0  0  2  0  0  0
    6.2509   -1.8571   25.2907 C   0  0  0  0  0  0
    6.6191   -3.0564   26.1368 C   0  0  0  0  0  0
    7.8761   -3.7514   26.1495 C   0  0  0  0  0  0
    7.8911   -4.8424   26.9770 C   0  0  0  0  0  0
    6.3704   -5.0483   27.7876 S   0  0  0  0  0  0
    5.7207   -3.6386   26.9943 C   0  0  0  0  0  0
    8.4948   -0.8318   24.4904 C   0  0  0  0  0  0
    9.5711   -1.3342   24.1707 O   0  0  0  0  0  0
    8.3746    0.3446   25.1397 N   0  0  0  0  0  0
    9.0506    1.4893   24.6791 N   0  0  0  0  0  0
    8.4295    2.6782   24.6282 C   0  0  0  0  0  0
    9.1346    3.6684   24.0935 N   0  0  0  0  0  0
   10.3287    3.0391   23.7707 C   0  0  0  0  0  0
   11.4737    3.5648   23.1302 C   0  0  0  0  0  0
   12.6121    2.7632   22.9181 C   0  0  0  0  0  0
   12.6330    1.4308   23.3702 C   0  0  0  0  0  0
   11.5075    0.8808   24.0137 C   0  0  0  0  0  0
   10.3463    1.6640   24.1778 C   0  0  0  0  0  0
    6.0574    0.4360   22.9531 C   0  0  0  0  0  0
    5.5645    1.0649   21.7915 C   0  0  0  0  0  0
    3.9713    2.6363   20.2478 H   0  0  0  0  0  0
    3.0103    1.2119   19.8457 H   0  0  0  0  0  0
    3.5773    2.2952   18.5706 H   0  0  0  0  0  0
    6.4294    0.2120   18.0241 H   0  0  0  0  0  0
    5.1757    1.2187   17.3023 H   0  0  0  0  0  0
    4.7759   -0.4017   17.8709 H   0  0  0  0  0  0
    5.9357   -1.5334   19.6007 H   0  0  0  0  0  0
    6.7198   -2.6281   21.6152 H   0  0  0  0  0  0
    7.5080   -2.5555   23.7182 H   0  0  0  0  0  0
    6.1509   -0.9685   25.9133 H   0  0  0  0  0  0
    5.2532   -2.0280   24.8863 H   0  0  0  0  0  0
    8.7194   -3.4597   25.5441 H   0  0  0  0  0  0
    8.6920   -5.5505   27.1515 H   0  0  0  0  0  0
    4.7032   -3.3370   27.1954 H   0  0  0  0  0  0
    7.4548    0.6107   25.4725 H   0  0  0  0  0  0
    7.4119    2.8234   24.9585 H   0  0  0  0  0  0
   11.4609    4.5914   22.7937 H   0  0  0  0  0  0
   13.4784    3.1724   22.4185 H   0  0  0  0  0  0
   13.5196    0.8308   23.2234 H   0  0  0  0  0  0
   11.5519   -0.1316   24.3711 H   0  0  0  0  0  0
    6.1077    1.0031   23.8670 H   0  0  0  0  0  0
    5.2614    2.1002   21.8583 H   0  0  0  0  0  0
  1  2  1  0  0  0
  1 29  1  0  0  0
  1 30  1  0  0  0
  1 31  1  0  0  0
  2  3  1  0  0  0
  2  4  1  0  0  0
  3 32  1  0  0  0
  3 33  1  0  0  0
  3 34  1  0  0  0
  4  5  2  0  0  0
  4 28  1  0  0  0
  5  6  1  0  0  0
  5 35  1  0  0  0
  6  7  2  0  0  0
  6 36  1  0  0  0
  7  8  1  0  0  0
  7 27  1  0  0  0
  8  9  1  0  0  0
  8 15  1  0  0  0
  8 37  1  0  0  0
  9 10  1  0  0  0
  9 38  1  0  0  0
  9 39  1  0  0  0
 10 11  1  0  0  0
 10 14  2  0  0  0
 11 12  2  0  0  0
 11 40  1  0  0  0
 12 13  1  0  0  0
 12 41  1  0  0  0
 13 14  1  0  0  0
 14 42  1  0  0  0
 15 16  2  0  0  0
 15 17  1  0  0  0
 17 18  1  0  0  0
 17 43  1  0  0  0
 18 19  1  0  0  0
 18 26  1  0  0  0
 19 20  2  0  0  0
 19 44  1  0  0  0
 20 21  1  0  0  0
 21 22  2  0  0  0
 21 26  1  0  0  0
 22 23  1  0  0  0
 22 45  1  0  0  0
 23 24  2  0  0  0
 23 46  1  0  0  0
 24 25  1  0  0  0
 24 47  1  0  0  0
 25 26  2  0  0  0
 25 48  1  0  0  0
 27 28  2  0  0  0
 27 49  1  0  0  0
 28 50  1  0  0  0
M  END
> <s_m_entry_id>
142

> <s_m_entry_name>
Compounds-withfrags-for-validation-docking.1839

> <s_m_Source_Path>
/home/rodolpho/data/melina/maestro/glide-dock_XP_5RGK_M-PRO_VALIDATION

> <s_m_Source_File>
glide-dock_XP_5RGK_M-PRO_VALIDATION_pv.maegz

> <i_m_Source_File_Index>
142

> <CID>
ALP-POS-a3de0cb1-7

> <Potency>
99.5

> <pIC50>
4.00218

> <Source>
Postera

> <smiles>
CN(C)c1ccc(C(Cc2ccsc2)C(=O)Nn2cnc3ccccc32)cc1

> <Outcome>
Inactive

> <StandardizerResult>
Clear Stereo (ID: ClearStereo)
Wedge Clean (ID: WedgeClean)
Mesomerize (ID: Mesomerize)
Tautomerize (ID: Tautomerize)
Aromatize (ID: Aromatize)
Add Explicit Hydrogens (ID: AddExplicitH)
Neutralize (ID: Neutralize)
Clean 2D (ID: Clean2D)

> <chiral flag>
0

> <version>
0

> <i_lp_mmshare_version>
41011

> <i_f3d_flags>
0

> <s_epik_input>
W0NIM11OKFtDSDNdKWMxW2NIXVtjSF1jKFtjSF1bY0hdMSlbQ0BIXShbQ0gyXWMyW2NIXVtjSF1zW2NIXTIpQyg9TylbTkhdbihbY0hdbjMpYyhjMzQpW2NIXVtjSF1bY0hdW2NIXTQ=

> <s_epik_cmdline>
J2VwaWtfcHl0aG9uJywgJy1waHQnLCAnMC41JywgJy1waCcsICc3LjQnLCAnLXRuJywgJzgnLCAnLW1hJywgJzIwMCcsICctaW1hZScsICc8aW5maWxlLm1hZT4nLCAnLW9tYWUnLCAnPG91dGZpbGUubWFlPic=

> <r_epik_Ionization_Penalty>
0.013

> <r_epik_Ionization_Penalty_Charging>
0.0

> <r_epik_Ionization_Penalty_Neutral>
0.013

> <r_epik_State_Penalty>
0.0087

> <r_epik_Charging_Adjusted_Penalty>
0.00865637

> <i_epik_Tot_Q>
0

> <i_epik_Tot_abs_Q>
0

> <s_lp_Force_Field>
OPLS3

> <r_lp_Energy>
40.085

> <b_lp_Chiralities_Consistent>
1

> <s_lp_Variant>
ligprep_COVID_compounds-withfrags-smallmolecules-forvalidation.maegz:78-2

> <i_glide_original_lignum>
257

> <s_i_glide_gridfile>
glide-grid_5RGK_M-PRO_COVID

> <i_i_glide_lignum>
257

> <r_i_docking_score>
-5.63475851052389

> <r_i_glide_ligand_efficiency>
-0.201241375375853

> <r_i_glide_ligand_efficiency_sa>
-0.61108734047265

> <r_i_glide_ligand_efficiency_ln>
-1.30066770792776

> <r_glide_XP_GScore>
-5.64341488052389

> <r_i_glide_gscore>
-5.64341488052389

> <r_i_glide_evdw>
-42.5985641479492

> <r_i_glide_ecoul>
-8.87865352630615

> <r_i_glide_energy>
-51.4772176742554

> <r_i_glide_einternal>
22.3492679595947

> <r_i_glide_emodel>
-55.7913398742676

> <r_glide_XP_HBond>
-1.13669807110421

> <i_i_glide_confnum>
1

> <i_i_glide_posenum>
22

> <r_i_glide_eff_state_penalty>
0.00865637

> <i_glide_XP_PoseRank>
1

> <MW>
390.15

> <cLogP>
4.26

> <TPSA>
50.16

> <Rotatable Bonds>
6

> <Fraction sp3>
0.18

> <HBA>
5

> <HBD>
1

> <r_lp_tautomer_probability>


> <s_epik_Chemistry_Notes>


> <Structure ID>


> <Submission Fragments>


$$$$
ligprep_COVID_compounds-withfrags-smallmolecules-forvalidation.maegz:89
                    3D
 Structure written by MMmdl.
 47 49  0  0  1  0            999 V2000
    9.7060    4.4051   23.5570 C   0  0  0  0  0  0
   10.9205    3.5132   23.3703 C   0  0  0  0  0  0
   12.0769    4.0210   22.7486 C   0  0  0  0  0  0
   13.1743    3.1643   22.5574 C   0  0  0  0  0  0
   13.1747    1.8687   22.9274 N   0  0  0  0  0  0
   12.0824    1.3883   23.5420 C   0  0  0  0  0  0
   10.9297    2.1643   23.7952 C   0  0  0  0  0  0
    9.7849    1.6092   24.4226 N   0  0  0  0  0  0
    9.7667    0.6337   25.3481 C   0  0  0  0  0  0
   10.7750    0.2364   25.9226 O   0  0  0  0  0  0
    8.4083    0.0585   25.7409 C   0  0  0  0  0  0
    7.7439   -0.5846   24.5373 C   0  0  0  0  0  0
    7.7329   -1.9858   24.3760 C   0  0  0  0  0  0
    7.1754   -2.5545   23.2119 C   0  0  0  0  0  0
    7.1892   -4.2670   22.9883 Cl  0  0  0  0  0  0
    6.6527   -1.7216   22.2036 C   0  0  0  0  0  0
    6.6566   -0.3144   22.3654 C   0  0  0  0  0  0
    6.2158    0.5828   21.3857 N   0  0  0  0  0  0
    5.4301    0.1331   20.2520 C   0  0  1  0  0  0
    4.5956    1.2950   19.7032 C   0  0  0  0  0  0
    4.8104    1.2868   18.1982 C   0  0  0  0  0  0
    6.1953    0.6759   17.9913 C   0  0  0  0  0  0
    6.2799   -0.3988   19.0758 C   0  0  2  0  0  0
    5.6845   -1.5804   18.5707 O   0  0  0  0  0  0
    7.1715    0.2372   23.5471 C   0  0  0  0  0  0
    8.8584    4.0094   22.9970 H   0  0  0  0  0  0
    9.9008    5.4145   23.1956 H   0  0  0  0  0  0
    9.4309    4.4693   24.6104 H   0  0  0  0  0  0
   12.1214    5.0421   22.4032 H   0  0  0  0  0  0
   14.0671    3.5164   22.0650 H   0  0  0  0  0  0
   12.1285    0.3422   23.8040 H   0  0  0  0  0  0
    8.8894    1.9759   24.1281 H   0  0  0  0  0  0
    8.5227   -0.6696   26.5453 H   0  0  0  0  0  0
    7.8034    0.8736   26.1269 H   0  0  0  0  0  0
    8.1707   -2.6267   25.1273 H   0  0  0  0  0  0
    6.2723   -2.1789   21.3027 H   0  0  0  0  0  0
    6.2651    1.5794   21.5565 H   0  0  0  0  0  0
    4.7743   -0.6423   20.6230 H   0  0  0  0  0  0
    3.5408    1.2045   19.9601 H   0  0  0  0  0  0
    4.9497    2.2370   20.1086 H   0  0  0  0  0  0
    4.0514    0.6372   17.7697 H   0  0  0  0  0  0
    4.7277    2.2840   17.7619 H   0  0  0  0  0  0
    6.3440    0.2976   16.9789 H   0  0  0  0  0  0
    6.9546    1.4363   18.1635 H   0  0  0  0  0  0
    7.3107   -0.6186   19.3568 H   0  0  0  0  0  0
    4.8794   -1.3686   18.1160 H   0  0  0  0  0  0
    7.1660    1.3098   23.6713 H   0  0  0  0  0  0
  1  2  1  0  0  0
  1 26  1  0  0  0
  1 27  1  0  0  0
  1 28  1  0  0  0
  2  3  2  0  0  0
  2  7  1  0  0  0
  3  4  1  0  0  0
  3 29  1  0  0  0
  4  5  2  0  0  0
  4 30  1  0  0  0
  5  6  1  0  0  0
  6  7  2  0  0  0
  6 31  1  0  0  0
  7  8  1  0  0  0
  8  9  1  0  0  0
  8 32  1  0  0  0
  9 10  2  0  0  0
  9 11  1  0  0  0
 11 12  1  0  0  0
 11 33  1  0  0  0
 11 34  1  0  0  0
 12 13  2  0  0  0
 12 25  1  0  0  0
 13 14  1  0  0  0
 13 35  1  0  0  0
 14 15  1  0  0  0
 14 16  2  0  0  0
 16 17  1  0  0  0
 16 36  1  0  0  0
 17 18  1  0  0  0
 17 25  2  0  0  0
 18 19  1  0  0  0
 18 37  1  0  0  0
 19 20  1  0  0  0
 19 23  1  0  0  0
 19 38  1  0  0  0
 20 21  1  0  0  0
 20 39  1  0  0  0
 20 40  1  0  0  0
 21 22  1  0  0  0
 21 41  1  0  0  0
 21 42  1  0  0  0
 22 23  1  0  0  0
 22 43  1  0  0  0
 22 44  1  0  0  0
 23 24  1  0  0  0
 23 45  1  0  0  0
 24 46  1  0  0  0
 25 47  1  0  0  0
M  END
> <s_m_entry_id>
143

> <s_m_entry_name>
Compounds-withfrags-for-validation-docking.1828

> <s_m_Source_Path>
/home/rodolpho/data/melina/maestro/glide-dock_XP_5RGK_M-PRO_VALIDATION

> <s_m_Source_File>
glide-dock_XP_5RGK_M-PRO_VALIDATION_pv.maegz

> <i_m_Source_File_Index>
143

> <CID>
MAT-POS-044491d2-1

> <Potency>
19.7025

> <pIC50>
4.70548

> <Source>
Postera

> <smiles>
Cc1ccncc1NC(=O)Cc1cc(Cl)cc(NC2CCCC2O)c1

> <Outcome>
Inactive

> <StandardizerResult>
Clear Stereo (ID: ClearStereo)
Wedge Clean (ID: WedgeClean)
Mesomerize (ID: Mesomerize)
Tautomerize (ID: Tautomerize)
Aromatize (ID: Aromatize)
Add Explicit Hydrogens (ID: AddExplicitH)
Neutralize (ID: Neutralize)
Clean 2D (ID: Clean2D)

> <chiral flag>
0

> <version>
0

> <i_lp_mmshare_version>
41011

> <i_f3d_flags>
0

> <s_epik_input>
W0NIM11jMVtjSF1bY0hdbltjSF1jMVtOSF1DKD1PKVtDSDJdYzJbY0hdYyhDbClbY0hdYyhbY0hdMilbTkhdW0NASF0zW0NIMl1bQ0gyXVtDSDJdW0NAQEhdM1tPSF0=

> <s_epik_cmdline>
J2VwaWtfcHl0aG9uJywgJy1waHQnLCAnMC41JywgJy1waCcsICc3LjQnLCAnLXRuJywgJzgnLCAnLW1hJywgJzIwMCcsICctaW1hZScsICc8aW5maWxlLm1hZT4nLCAnLW9tYWUnLCAnPG91dGZpbGUubWFlPic=

> <r_lp_tautomer_probability>
1.0

> <r_epik_Ionization_Penalty>
0.0032

> <r_epik_Ionization_Penalty_Charging>
0.0

> <r_epik_Ionization_Penalty_Neutral>
0.0032

> <r_epik_State_Penalty>
0.0

> <r_epik_Charging_Adjusted_Penalty>
0.0

> <i_epik_Tot_Q>
0

> <i_epik_Tot_abs_Q>
0

> <s_lp_Force_Field>
OPLS3

> <r_lp_Energy>
47.759

> <b_lp_Chiralities_Consistent>
1

> <s_lp_Variant>
ligprep_COVID_compounds-withfrags-smallmolecules-forvalidation.maegz:89-4

> <i_glide_original_lignum>
276

> <s_i_glide_gridfile>
glide-grid_5RGK_M-PRO_COVID

> <i_i_glide_lignum>
276

> <r_i_docking_score>
-5.62890499356416

> <r_i_glide_ligand_efficiency>
-0.225156199742567

> <r_i_glide_ligand_efficiency_sa>
-0.65836072120947

> <r_i_glide_ligand_efficiency_ln>
-1.33421916814535

> <r_glide_XP_GScore>
-5.62890499356416

> <r_i_glide_gscore>
-5.62890499356416

> <r_i_glide_evdw>
-37.2094688415527

> <r_i_glide_ecoul>
-8.91003894805908

> <r_i_glide_energy>
-46.1195077896118

> <r_i_glide_einternal>
2.83715181301349

> <r_i_glide_emodel>
-64.2926254272461

> <r_glide_XP_HBond>
-0.97404824948176

> <i_i_glide_confnum>
1

> <i_i_glide_posenum>
1

> <r_i_glide_eff_state_penalty>
0.0

> <i_glide_XP_PoseRank>
1

> <MW>
359.14

> <cLogP>
3.55

> <TPSA>
74.25

> <Rotatable Bonds>
5

> <Fraction sp3>
0.37

> <HBA>
4

> <HBD>
3

> <Structure ID>
x11764

> <s_epik_Chemistry_Notes>


> <Submission Fragments>


$$$$
ligprep_COVID_compounds-withfrags-smallmolecules-forvalidation.maegz:5
                    3D
 Structure written by MMmdl.
 54 55  0  0  1  0            999 V2000
   12.5900    3.8413   22.4535 C   0  0  0  0  0  0
   12.6414    2.3890   22.9063 C   0  0  0  0  0  0
   13.5590    1.6422   22.5716 O   0  0  0  0  0  0
   11.5964    2.0418   23.6697 O   0  0  0  0  0  0
   11.5613    0.7355   24.2277 C   0  0  0  0  0  0
   10.2266    0.5163   24.9302 C   0  0  0  0  0  0
   10.1980    0.2363   26.1271 O   0  0  0  0  0  0
    9.1328    0.6454   24.1708 N   0  0  0  0  0  0
    7.7630    0.5962   24.6488 C   0  0  0  0  0  0
    6.7869    0.4480   23.4715 C   0  0  0  0  0  0
    6.5627   -1.0075   22.9939 C   0  0  0  0  0  0
    6.7749   -1.2041   21.5975 O   0  0  0  0  0  0
    6.1153   -0.4068   20.6926 C   0  0  0  0  0  0
    6.7163   -0.2255   19.4311 C   0  0  0  0  0  0
    6.1370    0.6363   18.4824 C   0  0  0  0  0  0
    4.9548    1.3294   18.7948 C   0  0  0  0  0  0
    4.3253    1.1308   20.0401 C   0  0  0  0  0  0
    3.0148    1.8362   20.3397 C   0  0  0  0  0  0
    3.1749    3.0406   21.1917 N   0  3  0  0  0  0
    3.2249    2.7348   22.6483 C   0  0  0  0  0  0
    3.4012    3.9949   23.5159 C   0  0  0  0  0  0
    2.3479    5.0587   23.1881 C   0  0  0  0  0  0
    2.3763    5.3616   21.6866 C   0  0  0  0  0  0
    2.1605    4.0786   20.8687 C   0  0  0  0  0  0
    4.8943    0.2439   20.9759 C   0  0  0  0  0  0
   12.9195    4.4982   23.2577 H   0  0  0  0  0  0
   11.5739    4.1192   22.1739 H   0  0  0  0  0  0
   13.2385    3.9944   21.5906 H   0  0  0  0  0  0
   11.6769   -0.0233   23.4515 H   0  0  0  0  0  0
   12.3753    0.6338   24.9466 H   0  0  0  0  0  0
    9.2511    0.8950   23.1991 H   0  0  0  0  0  0
    7.6182   -0.1969   25.3839 H   0  0  0  0  0  0
    7.5745    1.5410   25.1597 H   0  0  0  0  0  0
    5.8213    0.8480   23.7719 H   0  0  0  0  0  0
    7.1150    1.0887   22.6527 H   0  0  0  0  0  0
    7.2629   -1.6711   23.5014 H   0  0  0  0  0  0
    5.5750   -1.3628   23.2822 H   0  0  0  0  0  0
    7.6426   -0.7338   19.2058 H   0  0  0  0  0  0
    6.6088    0.7919   17.5258 H   0  0  0  0  0  0
    4.5283    2.0093   18.0712 H   0  0  0  0  0  0
    2.5759    2.1192   19.3815 H   0  0  0  0  0  0
    2.3123    1.1396   20.7984 H   0  0  0  0  0  0
    2.3110    2.2155   22.9409 H   0  0  0  0  0  0
    4.0531    2.0615   22.8538 H   0  0  0  0  0  0
    3.3416    3.7293   24.5718 H   0  0  0  0  0  0
    4.3960    4.4134   23.3682 H   0  0  0  0  0  0
    1.3578    4.7049   23.4792 H   0  0  0  0  0  0
    2.5388    5.9663   23.7617 H   0  0  0  0  0  0
    1.6088    6.0957   21.4390 H   0  0  0  0  0  0
    3.3333    5.8128   21.4169 H   0  0  0  0  0  0
    2.2239    4.3265   19.8077 H   0  0  0  0  0  0
    1.1598    3.6818   21.0470 H   0  0  0  0  0  0
    4.3931    0.0684   21.9140 H   0  0  0  0  0  0
    4.0640    3.4716   20.9296 H   0  0  0  0  0  0
  1  2  1  0  0  0
  1 26  1  0  0  0
  1 27  1  0  0  0
  1 28  1  0  0  0
  2  3  2  0  0  0
  2  4  1  0  0  0
  4  5  1  0  0  0
  5  6  1  0  0  0
  5 29  1  0  0  0
  5 30  1  0  0  0
  6  7  2  0  0  0
  6  8  1  0  0  0
  8  9  1  0  0  0
  8 31  1  0  0  0
  9 10  1  0  0  0
  9 32  1  0  0  0
  9 33  1  0  0  0
 10 11  1  0  0  0
 10 34  1  0  0  0
 10 35  1  0  0  0
 11 12  1  0  0  0
 11 36  1  0  0  0
 11 37  1  0  0  0
 12 13  1  0  0  0
 13 14  2  0  0  0
 13 25  1  0  0  0
 14 15  1  0  0  0
 14 38  1  0  0  0
 15 16  2  0  0  0
 15 39  1  0  0  0
 16 17  1  0  0  0
 16 40  1  0  0  0
 17 18  1  0  0  0
 17 25  2  0  0  0
 18 19  1  0  0  0
 18 41  1  0  0  0
 18 42  1  0  0  0
 19 20  1  0  0  0
 19 24  1  0  0  0
 19 54  1  0  0  0
 20 21  1  0  0  0
 20 43  1  0  0  0
 20 44  1  0  0  0
 21 22  1  0  0  0
 21 45  1  0  0  0
 21 46  1  0  0  0
 22 23  1  0  0  0
 22 47  1  0  0  0
 22 48  1  0  0  0
 23 24  1  0  0  0
 23 49  1  0  0  0
 23 50  1  0  0  0
 24 51  1  0  0  0
 24 52  1  0  0  0
 25 53  1  0  0  0
M  CHG  1  19   1
M  END
> <s_m_entry_id>
149

> <s_m_entry_name>
Compounds-withfrags-for-validation-docking.1912

> <s_m_Source_Path>
/home/rodolpho/data/melina/maestro/glide-dock_XP_5RGK_M-PRO_VALIDATION

> <s_m_Source_File>
glide-dock_XP_5RGK_M-PRO_VALIDATION_pv.maegz

> <i_m_Source_File_Index>
149

> <CID>
Roxatidine acetate

> <Potency>
20.31

> <pIC50>
4.69229

> <Source>
https://doi.org/10.1101/2020.03.23.004580

> <smiles>
C(C(=O)OC(C(=O)N(C(C(C(OC1=C([H])C([H])=C([H])C(C(N2C([H])([H])C([H])([H])C([H])([H])C([H])([H])C2([H])[H])([H])[H])=C1[H])([H])[H])([H])[H])([H])[H])[H])([H])[H])([H])([H])[H]

> <Outcome>
Inactive

> <StandardizerResult>
Clear Stereo (ID: ClearStereo)
Wedge Clean (ID: WedgeClean)
Mesomerize (ID: Mesomerize)
Tautomerize (ID: Tautomerize)
Aromatize (ID: Aromatize)
Add Explicit Hydrogens (ID: AddExplicitH)
Neutralize (ID: Neutralize)
Clean 2D (ID: Clean2D)

> <chiral flag>
0

> <version>
0

> <i_lp_mmshare_version>
41011

> <i_f3d_flags>
0

> <s_epik_input>
W0NIM11DKD1PKU9bQ0gyXUMoPU8pW05IXVtDSDJdW0NIMl1bQ0gyXU9jMVtjSF1bY0hdW2NIXWMoW2NIXTEpW0NIMl1OMltDSDJdW0NIMl1bQ0gyXVtDSDJdW0NIMl0y

> <s_epik_cmdline>
J2VwaWtfcHl0aG9uJywgJy1waHQnLCAnMC41JywgJy1waCcsICc3LjQnLCAnLXRuJywgJzgnLCAnLW1hJywgJzIwMCcsICctaW1hZScsICc8aW5maWxlLm1hZT4nLCAnLW9tYWUnLCAnPG91dGZpbGUubWFlPic=

> <r_lp_tautomer_probability>
1.0

> <r_epik_Ionization_Penalty>
0.0238

> <r_epik_Ionization_Penalty_Charging>
0.0238

> <r_epik_Ionization_Penalty_Neutral>
0.0

> <r_epik_State_Penalty>
0.0193

> <r_epik_Charging_Adjusted_Penalty>
0.0431193

> <i_epik_Tot_Q>
1

> <i_epik_Tot_abs_Q>
1

> <s_lp_Force_Field>
OPLS3

> <r_lp_Energy>
24.999

> <b_lp_Chiralities_Consistent>
1

> <s_lp_Variant>
ligprep_COVID_compounds-withfrags-smallmolecules-forvalidation.maegz:5-1

> <i_glide_original_lignum>
52

> <s_i_glide_gridfile>
glide-grid_5RGK_M-PRO_COVID

> <i_i_glide_lignum>
52

> <r_i_docking_score>
-5.59236777808066

> <r_i_glide_ligand_efficiency>
-0.223694711123226

> <r_i_glide_ligand_efficiency_sa>
-0.654087302566908

> <r_i_glide_ligand_efficiency_ln>
-1.32555875314376

> <r_glide_XP_GScore>
-5.61166767808066

> <r_i_glide_gscore>
-5.61166767808066

> <r_i_glide_evdw>
-34.1414413452148

> <r_i_glide_ecoul>
-5.09046506881714

> <r_i_glide_energy>
-39.231906414032

> <r_i_glide_einternal>
7.97995519638062

> <r_i_glide_emodel>
-50.6212469606426

> <r_glide_XP_HBond>
-1.84290437529314

> <i_i_glide_confnum>
1

> <i_i_glide_posenum>
3

> <r_i_glide_eff_state_penalty>
0.0192999

> <i_glide_XP_PoseRank>
1

> <s_epik_Chemistry_Notes>
This compound has an ester and may undergo hydrolysis at high or low pH.

> <MW>


> <cLogP>


> <TPSA>


> <Rotatable Bonds>


> <Fraction sp3>


> <HBA>


> <HBD>


> <Structure ID>


> <Submission Fragments>


$$$$
ligprep_COVID_compounds-withfrags-smallmolecules-forvalidation.maegz:28
                    3D
 Structure written by MMmdl.
 70 74  0  0  1  0            999 V2000
   10.6813    0.2472   25.3706 N   0  0  0  0  0  0
    9.6193    0.0686   24.9467 C   0  0  0  0  0  0
    8.2852   -0.1584   24.4139 C   0  0  0  0  0  0
    7.5821    0.9047   23.8030 C   0  0  0  0  0  0
    6.2386    0.7509   23.3723 C   0  0  0  0  0  0
    5.4254    1.8363   22.8678 N   0  0  0  0  0  0
    4.7554    1.7036   21.6844 C   0  0  0  0  0  0
    3.6305    2.1855   21.5249 O   0  0  0  0  0  0
    5.3281    0.9079   20.5627 C   0  0  0  0  0  0
    4.7844    0.6399   19.3354 C   0  0  0  0  0  0
    5.7153   -0.1683   18.6277 C   0  0  0  0  0  0
    6.7867   -0.3071   19.4590 C   0  0  0  0  0  0
    6.5756    0.3547   20.6293 O   0  0  0  0  0  0
    5.1966    3.1017   23.6590 C   0  0  2  0  0  0
    6.4950    3.7515   24.2384 C   0  0  0  0  0  0
    6.8967    3.5017   25.3730 O   0  0  0  0  0  0
    7.1750    4.5100   23.3707 N   0  0  0  0  0  0
    8.5944    4.6588   23.1077 C   0  0  0  0  0  0
    9.5648    4.6401   24.2931 C   0  0  0  0  0  0
   10.9546    4.3850   23.7499 C   0  0  0  0  0  0
   11.8628    5.4362   23.5161 C   0  0  0  0  0  0
   13.1058    5.1646   22.9107 C   0  0  0  0  0  0
   13.4400    3.8408   22.5620 C   0  0  0  0  0  0
   12.5569    2.7851   22.8436 C   0  0  0  0  0  0
   12.8983    1.5063   22.5603 F   0  0  0  0  0  0
   11.3110    3.0636   23.4195 C   0  0  0  0  0  0
    4.0942    3.0361   24.6909 C   0  0  0  0  0  0
    3.1570    1.9734   24.7376 C   0  0  0  0  0  0
    2.1229    1.9729   25.6900 C   0  0  0  0  0  0
    2.0275    3.0610   26.5715 C   0  0  0  0  0  0
    2.8773    4.1034   26.5370 N   0  0  0  0  0  0
    3.8642    4.0874   25.6169 C   0  0  0  0  0  0
    5.6800   -0.5445   23.4443 C   0  0  0  0  0  0
    6.4120   -1.6259   23.9684 C   0  0  0  0  0  0
    7.6955   -1.4352   24.5143 C   0  0  0  0  0  0
    8.3863   -2.4749   25.1036 O   0  0  0  0  0  0
    7.7570   -3.3400   25.9760 C   0  0  0  0  0  0
    8.3032   -4.6290   26.1493 C   0  0  0  0  0  0
    7.6982   -5.5533   27.0263 C   0  0  0  0  0  0
    6.5279   -5.2080   27.7344 C   0  0  0  0  0  0
    5.8634   -6.2034   28.6768 C   0  0  0  0  0  0
    5.0838   -5.5770   29.5592 F   0  0  0  0  0  0
    5.1075   -7.0433   27.9711 F   0  0  0  0  0  0
    6.7748   -6.8953   29.3604 F   0  0  0  0  0  0
    5.9750   -3.9224   27.5545 C   0  0  0  0  0  0
    6.6021   -2.9855   26.7128 C   0  0  0  0  0  0
    8.0942    1.8454   23.6934 H   0  0  0  0  0  0
    3.8186    0.9843   18.9937 H   0  0  0  0  0  0
    5.6068   -0.5953   17.6400 H   0  0  0  0  0  0
    7.7333   -0.8222   19.3854 H   0  0  0  0  0  0
    4.7783    3.8365   22.9728 H   0  0  0  0  0  0
    6.6192    4.6402   22.5031 H   0  0  0  0  0  0
    8.8281    3.8355   22.4321 H   0  0  0  0  0  0
    8.7365    5.5654   22.5171 H   0  0  0  0  0  0
    9.5241    5.5761   24.8501 H   0  0  0  0  0  0
    9.3341    3.8392   24.9939 H   0  0  0  0  0  0
   11.5967    6.4517   23.7703 H   0  0  0  0  0  0
   13.7950    5.9711   22.7062 H   0  0  0  0  0  0
   14.3747    3.6155   22.0830 H   0  0  0  0  0  0
   10.6148    2.2624   23.5977 H   0  0  0  0  0  0
    3.2209    1.1394   24.0557 H   0  0  0  0  0  0
    1.4131    1.1595   25.7368 H   0  0  0  0  0  0
    1.2461    3.0999   27.3158 H   0  0  0  0  0  0
    4.4959    4.9635   25.6248 H   0  0  0  0  0  0
    4.6757   -0.7228   23.0931 H   0  0  0  0  0  0
    5.9751   -2.6115   23.9904 H   0  0  0  0  0  0
    9.1932   -4.9133   25.6067 H   0  0  0  0  0  0
    8.1290   -6.5384   27.1512 H   0  0  0  0  0  0
    5.0816   -3.6346   28.0886 H   0  0  0  0  0  0
    6.1747   -1.9968   26.6284 H   0  0  0  0  0  0
  1  2  3  0  0  0
  2  3  1  0  0  0
  3  4  2  0  0  0
  3 35  1  0  0  0
  4  5  1  0  0  0
  4 47  1  0  0  0
  5  6  1  0  0  0
  5 33  2  0  0  0
  6  7  1  0  0  0
  6 14  1  0  0  0
  7  8  2  0  0  0
  7  9  1  0  0  0
  9 10  2  0  0  0
  9 13  1  0  0  0
 10 11  1  0  0  0
 10 48  1  0  0  0
 11 12  2  0  0  0
 11 49  1  0  0  0
 12 13  1  0  0  0
 12 50  1  0  0  0
 14 15  1  0  0  0
 14 27  1  0  0  0
 14 51  1  0  0  0
 15 16  2  0  0  0
 15 17  1  0  0  0
 17 18  1  0  0  0
 17 52  1  0  0  0
 18 19  1  0  0  0
 18 53  1  0  0  0
 18 54  1  0  0  0
 19 20  1  0  0  0
 19 55  1  0  0  0
 19 56  1  0  0  0
 20 21  2  0  0  0
 20 26  1  0  0  0
 21 22  1  0  0  0
 21 57  1  0  0  0
 22 23  2  0  0  0
 22 58  1  0  0  0
 23 24  1  0  0  0
 23 59  1  0  0  0
 24 25  1  0  0  0
 24 26  2  0  0  0
 26 60  1  0  0  0
 27 28  2  0  0  0
 27 32  1  0  0  0
 28 29  1  0  0  0
 28 61  1  0  0  0
 29 30  2  0  0  0
 29 62  1  0  0  0
 30 31  1  0  0  0
 30 63  1  0  0  0
 31 32  2  0  0  0
 32 64  1  0  0  0
 33 34  1  0  0  0
 33 65  1  0  0  0
 34 35  2  0  0  0
 34 66  1  0  0  0
 35 36  1  0  0  0
 36 37  1  0  0  0
 37 38  2  0  0  0
 37 46  1  0  0  0
 38 39  1  0  0  0
 38 67  1  0  0  0
 39 40  2  0  0  0
 39 68  1  0  0  0
 40 41  1  0  0  0
 40 45  1  0  0  0
 41 42  1  0  0  0
 41 43  1  0  0  0
 41 44  1  0  0  0
 45 46  2  0  0  0
 45 69  1  0  0  0
 46 70  1  0  0  0
M  END
> <s_m_entry_id>
151

> <s_m_entry_name>
Compounds-withfrags-for-validation-docking.1889

> <s_m_Source_Path>
/home/rodolpho/data/melina/maestro/glide-dock_XP_5RGK_M-PRO_VALIDATION

> <s_m_Source_File>
glide-dock_XP_5RGK_M-PRO_VALIDATION_pv.maegz

> <i_m_Source_File_Index>
151

> <CID>
ALP-POS-b0bc6a46-27

> <Potency>
99.5

> <pIC50>
4.00218

> <Source>
Postera

> <smiles>
N#Cc1cc(N(C(=O)c2ccco2)C(C(=O)NCCc2cccc(F)c2)c2cccnc2)ccc1Oc1ccc(C(F)(F)F)cc1

> <Outcome>
Inactive

> <StandardizerResult>
Clear Stereo (ID: ClearStereo)
Wedge Clean (ID: WedgeClean)
Mesomerize (ID: Mesomerize)
Tautomerize (ID: Tautomerize)
Aromatize (ID: Aromatize)
Add Explicit Hydrogens (ID: AddExplicitH)
Neutralize (ID: Neutralize)
Clean 2D (ID: Clean2D)

> <chiral flag>
0

> <version>
0

> <i_lp_mmshare_version>
41011

> <i_f3d_flags>
0

> <s_epik_input>
RkMoRikoRiljKFtjSF1bY0hdMSlbY0hdW2NIXWMxT2MyW2NIXVtjSF1jKFtjSF1jMkMjTilOKEMoPU8pYzNbY0hdW2NIXVtjSF1vMylbQ0BASF0oYzRbY0hdW2NIXVtjSF1uW2NIXTQpQyg9TylbTkhdW0NIMl1bQ0gyXWM1W2NIXVtjSF1bY0hdYyhGKVtjSF01

> <s_epik_cmdline>
J2VwaWtfcHl0aG9uJywgJy1waHQnLCAnMC41JywgJy1waCcsICc3LjQnLCAnLXRuJywgJzgnLCAnLW1hJywgJzIwMCcsICctaW1hZScsICc8aW5maWxlLm1hZT4nLCAnLW9tYWUnLCAnPG91dGZpbGUubWFlPic=

> <r_lp_tautomer_probability>
1.0

> <r_epik_Ionization_Penalty>
5.0E-4

> <r_epik_Ionization_Penalty_Charging>
0.0

> <r_epik_Ionization_Penalty_Neutral>
5.0E-4

> <r_epik_State_Penalty>
0.0

> <r_epik_Charging_Adjusted_Penalty>
0.0

> <i_epik_Tot_Q>
0

> <i_epik_Tot_abs_Q>
0

> <s_lp_Force_Field>
OPLS3

> <r_lp_Energy>
83.6533

> <b_lp_Chiralities_Consistent>
1

> <s_lp_Variant>
ligprep_COVID_compounds-withfrags-smallmolecules-forvalidation.maegz:28-2

> <i_glide_original_lignum>
152

> <s_i_glide_gridfile>
glide-grid_5RGK_M-PRO_COVID

> <i_i_glide_lignum>
152

> <r_i_docking_score>
-5.58403097927887

> <r_i_glide_ligand_efficiency>
-0.12139197781041

> <r_i_glide_ligand_efficiency_sa>
-0.434953267096912

> <r_i_glide_ligand_efficiency_ln>
-1.15643936270335

> <r_glide_XP_GScore>
-5.58403097927887

> <r_i_glide_gscore>
-5.58403097927887

> <r_i_glide_evdw>
-42.7539367675781

> <r_i_glide_ecoul>
-12.2870569229126

> <r_i_glide_energy>
-55.0409936904907

> <r_i_glide_einternal>
10.1602735519409

> <r_i_glide_emodel>
-67.606511566971

> <r_glide_XP_HBond>
-0.691378649406204

> <i_i_glide_confnum>
3

> <i_i_glide_posenum>
3

> <r_i_glide_eff_state_penalty>
0.0

> <i_glide_XP_PoseRank>
1

> <MW>
628.17

> <cLogP>
7.24

> <TPSA>
108.46

> <Rotatable Bonds>
10

> <Fraction sp3>
0.12

> <HBA>
6

> <HBD>
1

> <s_epik_Chemistry_Notes>


> <Structure ID>


> <Submission Fragments>


$$$$
ligprep_COVID_compounds-withfrags-smallmolecules-forvalidation.maegz:4
                    3D
 Structure written by MMmdl.
 93 97  0  0  1  0            999 V2000
    5.4886    8.7234   20.1915 C   0  0  0  0  0  0
    4.0422    8.6130   19.6628 C   0  0  0  0  0  0
    3.0869    8.4367   20.8673 C   0  0  0  0  0  0
    3.7066    9.9220   18.9043 C   0  0  0  0  0  0
    3.9873    7.4354   18.7847 N   0  0  0  0  0  0
    3.5289    7.3604   17.5198 C   0  0  0  0  0  0
    3.1608    8.3269   16.8515 O   0  0  0  0  0  0
    3.4587    5.9235   16.9399 C   0  0  2  0  0  0
    3.5129    6.0333   15.3941 C   0  0  0  0  0  0
    2.2776    6.4316   14.7147 N   0  0  0  0  0  0
    2.5023    6.5184   13.2683 C   0  0  0  0  0  0
    3.1569    7.8307   12.8587 C   0  0  0  0  0  0
    2.5539    9.0595   13.1503 C   0  0  0  0  0  0
    3.1787   10.2444   12.7555 C   0  0  0  0  0  0
    4.3955   10.1619   12.0760 C   0  0  0  0  0  0
    4.9977    8.9814   11.7815 N   0  0  0  0  0  0
    4.3760    7.8392   12.1715 C   0  0  0  0  0  0
    1.2063    5.4860   15.0485 C   0  0  0  0  0  0
    0.9190    5.4386   16.5652 C   0  0  0  0  0  0
    2.2144    5.1491   17.3662 N   0  3  2  0  0  0
    1.8740    5.1375   18.8872 C   0  0  0  0  0  0
    1.3751    3.7684   19.4106 C   0  0  2  0  0  0
    0.7502    3.7980   20.8311 C   0  0  0  0  0  0
    1.7684    3.8669   22.0069 C   0  0  1  0  0  0
    1.1305    4.5284   23.2593 C   0  0  0  0  0  0
    2.1113    4.7778   24.4023 C   0  0  0  0  0  0
    3.2936    5.4869   24.1714 C   0  0  0  0  0  0
    4.1675    5.7432   25.2245 C   0  0  0  0  0  0
    3.8596    5.2847   26.5036 C   0  0  0  0  0  0
    2.6868    4.5705   26.7392 C   0  0  0  0  0  0
    1.8119    4.3153   25.6869 C   0  0  0  0  0  0
    2.3854    2.4871   22.3439 C   0  0  0  0  0  0
    1.6832    1.5851   22.8040 O   0  0  0  0  0  0
    3.7013    2.3485   22.1018 N   0  0  0  0  0  0
    4.4573    1.0902   22.0751 C   0  0  1  0  0  0
    4.9898    0.7510   20.6930 C   0  0  0  0  0  0
    4.4786    1.0380   19.4238 C   0  0  0  0  0  0
    5.1743    0.6250   18.2863 C   0  0  0  0  0  0
    6.3796   -0.0680   18.4138 C   0  0  0  0  0  0
    6.8976   -0.3468   19.6795 C   0  0  0  0  0  0
    6.2046    0.0703   20.8167 C   0  0  0  0  0  0
    6.5575   -0.0835   22.2812 C   0  0  0  0  0  0
    5.7380    1.0311   22.9455 C   0  0  1  0  0  0
    6.4839    2.2392   22.9653 O   0  0  0  0  0  0
    2.4761    2.8812   19.4077 O   0  0  0  0  0  0
    5.6055    9.5673   20.8729 H   0  0  0  0  0  0
    6.2041    8.8617   19.3792 H   0  0  0  0  0  0
    5.7881    7.8268   20.7345 H   0  0  0  0  0  0
    3.3108    7.5264   21.4259 H   0  0  0  0  0  0
    2.0444    8.3751   20.5531 H   0  0  0  0  0  0
    3.1628    9.2730   21.5633 H   0  0  0  0  0  0
    3.8617   10.7985   19.5348 H   0  0  0  0  0  0
    2.6678    9.9544   18.5754 H   0  0  0  0  0  0
    4.3331   10.0436   18.0197 H   0  0  0  0  0  0
    4.2592    6.5690   19.2267 H   0  0  0  0  0  0
    4.3127    5.3468   17.2922 H   0  0  0  0  0  0
    4.3273    6.7092   15.1233 H   0  0  0  0  0  0
    3.8107    5.0483   15.0278 H   0  0  0  0  0  0
    3.1723    5.7157   12.9545 H   0  0  0  0  0  0
    1.5699    6.3666   12.7206 H   0  0  0  0  0  0
    1.6119    9.0981   13.6775 H   0  0  0  0  0  0
    2.7304   11.2032   12.9701 H   0  0  0  0  0  0
    4.9081   11.0567   11.7544 H   0  0  0  0  0  0
    4.8780    6.9147   11.9254 H   0  0  0  0  0  0
    0.2875    5.7731   14.5356 H   0  0  0  0  0  0
    1.4595    4.4872   14.6876 H   0  0  0  0  0  0
    0.5155    6.3868   16.9247 H   0  0  0  0  0  0
    0.2107    4.6452   16.8070 H   0  0  0  0  0  0
    2.7753    5.4695   19.4054 H   0  0  0  0  0  0
    1.1022    5.9018   18.9940 H   0  0  0  0  0  0
    0.6661    3.3570   18.6948 H   0  0  0  0  0  0
    0.0710    4.6502   20.8937 H   0  0  0  0  0  0
    0.1111    2.9271   20.9777 H   0  0  0  0  0  0
    2.5803    4.5195   21.6786 H   0  0  0  0  0  0
    0.6931    5.4900   22.9855 H   0  0  0  0  0  0
    0.2899    3.9308   23.6186 H   0  0  0  0  0  0
    3.5306    5.8511   23.1823 H   0  0  0  0  0  0
    5.0776    6.2987   25.0514 H   0  0  0  0  0  0
    4.5365    5.4857   27.3210 H   0  0  0  0  0  0
    2.4559    4.2191   27.7341 H   0  0  0  0  0  0
    0.8989    3.7681   25.8719 H   0  0  0  0  0  0
    4.2121    3.1663   21.8027 H   0  0  0  0  0  0
    3.7953    0.2757   22.3757 H   0  0  0  0  0  0
    3.5481    1.5741   19.3082 H   0  0  0  0  0  0
    4.7799    0.8429   17.3045 H   0  0  0  0  0  0
    6.9151   -0.3846   17.5310 H   0  0  0  0  0  0
    7.8358   -0.8754   19.7649 H   0  0  0  0  0  0
    6.2459   -1.0624   22.6485 H   0  0  0  0  0  0
    7.6256    0.0130   22.4841 H   0  0  0  0  0  0
    5.4945    0.7598   23.9733 H   0  0  0  0  0  0
    6.1419    2.8166   22.2787 H   0  0  0  0  0  0
    3.2873    3.3944   19.4272 H   0  0  0  0  0  0
    2.4092    4.1784   17.1660 H   0  0  0  0  0  0
  1  2  1  0  0  0
  1 46  1  0  0  0
  1 47  1  0  0  0
  1 48  1  0  0  0
  2  3  1  0  0  0
  2  4  1  0  0  0
  2  5  1  0  0  0
  3 49  1  0  0  0
  3 50  1  0  0  0
  3 51  1  0  0  0
  4 52  1  0  0  0
  4 53  1  0  0  0
  4 54  1  0  0  0
  5  6  1  0  0  0
  5 55  1  0  0  0
  6  7  2  0  0  0
  6  8  1  0  0  0
  8  9  1  0  0  0
  8 20  1  0  0  0
  8 56  1  0  0  0
  9 10  1  0  0  0
  9 57  1  0  0  0
  9 58  1  0  0  0
 10 11  1  0  0  0
 10 18  1  0  0  0
 11 12  1  0  0  0
 11 59  1  0  0  0
 11 60  1  0  0  0
 12 13  2  0  0  0
 12 17  1  0  0  0
 13 14  1  0  0  0
 13 61  1  0  0  0
 14 15  2  0  0  0
 14 62  1  0  0  0
 15 16  1  0  0  0
 15 63  1  0  0  0
 16 17  2  0  0  0
 17 64  1  0  0  0
 18 19  1  0  0  0
 18 65  1  0  0  0
 18 66  1  0  0  0
 19 20  1  0  0  0
 19 67  1  0  0  0
 19 68  1  0  0  0
 20 21  1  0  0  0
 20 93  1  0  0  0
 21 22  1  0  0  0
 21 69  1  0  0  0
 21 70  1  0  0  0
 22 23  1  0  0  0
 22 45  1  0  0  0
 22 71  1  0  0  0
 23 24  1  0  0  0
 23 72  1  0  0  0
 23 73  1  0  0  0
 24 25  1  0  0  0
 24 32  1  0  0  0
 24 74  1  0  0  0
 25 26  1  0  0  0
 25 75  1  0  0  0
 25 76  1  0  0  0
 26 27  2  0  0  0
 26 31  1  0  0  0
 27 28  1  0  0  0
 27 77  1  0  0  0
 28 29  2  0  0  0
 28 78  1  0  0  0
 29 30  1  0  0  0
 29 79  1  0  0  0
 30 31  2  0  0  0
 30 80  1  0  0  0
 31 81  1  0  0  0
 32 33  2  0  0  0
 32 34  1  0  0  0
 34 35  1  0  0  0
 34 82  1  0  0  0
 35 36  1  0  0  0
 35 43  1  0  0  0
 35 83  1  0  0  0
 36 37  2  0  0  0
 36 41  1  0  0  0
 37 38  1  0  0  0
 37 84  1  0  0  0
 38 39  2  0  0  0
 38 85  1  0  0  0
 39 40  1  0  0  0
 39 86  1  0  0  0
 40 41  2  0  0  0
 40 87  1  0  0  0
 41 42  1  0  0  0
 42 43  1  0  0  0
 42 88  1  0  0  0
 42 89  1  0  0  0
 43 44  1  0  0  0
 43 90  1  0  0  0
 44 91  1  0  0  0
 45 92  1  0  0  0
M  CHG  1  20   1
M  END
> <s_m_entry_id>
154

> <s_m_entry_name>
Compounds-withfrags-for-validation-docking.1913

> <s_m_Source_Path>
/home/rodolpho/data/melina/maestro/glide-dock_XP_5RGK_M-PRO_VALIDATION

> <s_m_Source_File>
glide-dock_XP_5RGK_M-PRO_VALIDATION_pv.maegz

> <i_m_Source_File_Index>
154

> <CID>
Indinavir

> <Potency>
43.13

> <pIC50>
4.36522

> <Source>
https://doi.org/10.1101/2020.03.23.004580

> <smiles>
C(C(C([H])([H])[H])(C([H])([H])[H])N(C(=O)C1(C([H])([H])N(C(C2=C([H])C([H])=C([H])N=C2[H])([H])[H])C([H])([H])C([H])([H])N1C(C(C(C(C(C1=C([H])C([H])=C([H])C([H])=C1[H])([H])[H])(C(=O)N(C1(C2=C(C(=C(C([H])=C2C([H])([H])C1(O[H])[H])[H])[H])[H])[H])[H])[H])([H])[H])(O[H])[H])([H])[H])[H])[H])([H])([H])[H]

> <Outcome>
Inactive

> <StandardizerResult>
Clear Stereo (ID: ClearStereo)
Wedge Clean (ID: WedgeClean)
Mesomerize (ID: Mesomerize)
Tautomerize (ID: Tautomerize)
Aromatize (ID: Aromatize)
Add Explicit Hydrogens (ID: AddExplicitH)
Neutralize (ID: Neutralize)
Clean 2D (ID: Clean2D)

> <chiral flag>
0

> <version>
0

> <i_lp_mmshare_version>
41011

> <i_f3d_flags>
0

> <s_epik_input>
W2NIXTFuW2NIXVtjSF1bY0hdYzFbQ0gyXU4oW0NIMl1bQ0BIXTJDKD1PKVtOSF1DKFtDSDNdKShbQ0gzXSlbQ0gzXSlbQ0gyXVtDSDJdTjJbQ0gyXVtDQEBIXShbT0hdKVtDSDJdW0NAQEhdKFtDSDJdYzNbY0hdW2NIXVtjSF1bY0hdW2NIXTMpQyg9TylbTkhdW0NAQEhdNFtDQEhdKFtPSF0pW0NIMl1jKGM0NSlbY0hdW2NIXVtjSF1bY0hdNQ==

> <s_epik_cmdline>
J2VwaWtfcHl0aG9uJywgJy1waHQnLCAnMC41JywgJy1waCcsICc3LjQnLCAnLXRuJywgJzgnLCAnLW1hJywgJzIwMCcsICctaW1hZScsICc8aW5maWxlLm1hZT4nLCAnLW9tYWUnLCAnPG91dGZpbGUubWFlPic=

> <r_epik_Ionization_Penalty>
0.3395

> <r_epik_Ionization_Penalty_Charging>
0.3352

> <r_epik_Ionization_Penalty_Neutral>
0.0044

> <r_epik_State_Penalty>
0.5191

> <r_epik_Charging_Adjusted_Penalty>
0.854238

> <i_epik_Tot_Q>
1

> <i_epik_Tot_abs_Q>
1

> <s_lp_Force_Field>
OPLS3

> <r_lp_Energy>
52.5747

> <b_lp_Chiralities_Consistent>
1

> <s_lp_Variant>
ligprep_COVID_compounds-withfrags-smallmolecules-forvalidation.maegz:4-8

> <i_glide_original_lignum>
27

> <s_i_glide_gridfile>
glide-grid_5RGK_M-PRO_COVID

> <i_i_glide_lignum>
27

> <r_i_docking_score>
-5.57920094689233

> <r_i_glide_ligand_efficiency>
-0.123982243264274

> <r_i_glide_ligand_efficiency_sa>
-0.440991610382786

> <r_i_glide_ligand_efficiency_ln>
-1.16072242616704

> <r_glide_XP_GScore>
-6.09827294689233

> <r_i_glide_gscore>
-6.09827294689233

> <r_i_glide_evdw>
-37.905445098877

> <r_i_glide_ecoul>
-14.766770362854

> <r_i_glide_energy>
-52.672215461731

> <r_i_glide_einternal>
16.740592956543

> <r_i_glide_emodel>
-71.9075241088867

> <r_glide_XP_HBond>
-2.39229768502978

> <i_i_glide_confnum>
2

> <i_i_glide_posenum>
1

> <r_i_glide_eff_state_penalty>
0.519072

> <i_glide_XP_PoseRank>
1

> <r_lp_tautomer_probability>


> <s_epik_Chemistry_Notes>


> <MW>


> <cLogP>


> <TPSA>


> <Rotatable Bonds>


> <Fraction sp3>


> <HBA>


> <HBD>


> <Structure ID>


> <Submission Fragments>


$$$$
ligprep_COVID_compounds-withfrags-smallmolecules-forvalidation.maegz:37
                    3D
 Structure written by MMmdl.
 67 70  0  0  1  0            999 V2000
    1.2550    9.2549   19.2195 C   0  0  0  0  0  0
    0.9904    7.9732   18.6671 O   0  0  0  0  0  0
    1.3246    6.8630   19.4142 C   0  0  0  0  0  0
    1.7371    6.9184   20.7635 C   0  0  0  0  0  0
    2.1052    5.7472   21.4483 C   0  0  0  0  0  0
    2.0462    4.4710   20.8316 C   0  0  0  0  0  0
    2.5453    3.2857   21.5066 N   0  0  0  0  0  0
    2.4151    2.0645   20.9331 C   0  0  0  0  0  0
    1.3560    1.4370   20.9711 O   0  0  0  0  0  0
    3.5737    1.5104   20.1925 C   0  0  0  0  0  0
    4.0959    1.8313   18.9717 C   0  0  0  0  0  0
    5.1832    0.9504   18.7290 C   0  0  0  0  0  0
    5.2441    0.1366   19.8204 C   0  0  0  0  0  0
    4.2605    0.4548   20.7078 O   0  0  0  0  0  0
    3.2566    3.4395   22.8138 C   0  0  2  0  0  0
    4.0433    2.2196   23.3781 C   0  0  0  0  0  0
    3.5188    1.4389   24.1743 O   0  0  0  0  0  0
    5.3178    2.0951   22.9691 N   0  0  0  0  0  0
    6.3041    1.0684   23.3450 C   0  0  0  0  0  0
    5.7648   -0.3835   23.4637 C   0  0  0  0  0  0
    6.8128   -1.4085   23.8569 C   0  0  0  0  0  0
    7.1699   -2.4555   22.9788 C   0  0  0  0  0  0
    8.0873   -3.4449   23.3861 C   0  0  0  0  0  0
    8.6439   -3.3979   24.6787 C   0  0  0  0  0  0
    8.2790   -2.3605   25.5587 C   0  0  0  0  0  0
    8.7760   -2.3239   26.8128 F   0  0  0  0  0  0
    7.3784   -1.3640   25.1458 C   0  0  0  0  0  0
    2.2886    3.7885   23.9183 C   0  0  0  0  0  0
    0.9492    3.3297   23.9681 C   0  0  0  0  0  0
    0.1163    3.6969   25.0401 C   0  0  0  0  0  0
    0.6484    4.5196   26.0470 C   0  0  0  0  0  0
    1.9180    4.9677   26.0324 N   0  0  0  0  0  0
    2.7026    4.6045   24.9975 C   0  0  0  0  0  0
    1.5720    4.4254   19.4927 C   0  0  0  0  0  0
    1.2592    5.6032   18.7833 C   0  0  0  0  0  0
    0.9228    5.5148   17.4568 O   0  0  0  0  0  0
    1.9775    5.8874   16.5715 C   0  0  0  0  0  0
    2.8869    4.6784   16.2887 C   0  0  0  0  0  0
    4.2477    4.9489   16.5708 O   0  0  0  0  0  0
    1.0508   10.0183   18.4692 H   0  0  0  0  0  0
    2.3001    9.3566   19.5141 H   0  0  0  0  0  0
    0.6139    9.4567   20.0792 H   0  0  0  0  0  0
    1.8088    7.8547   21.2930 H   0  0  0  0  0  0
    2.4606    5.8796   22.4558 H   0  0  0  0  0  0
    3.7513    2.6295   18.3328 H   0  0  0  0  0  0
    5.8325    0.9191   17.8675 H   0  0  0  0  0  0
    5.8818   -0.6865   20.1095 H   0  0  0  0  0  0
    3.9745    4.2492   22.7003 H   0  0  0  0  0  0
    5.6376    2.8172   22.3247 H   0  0  0  0  0  0
    7.0906    1.0895   22.5891 H   0  0  0  0  0  0
    6.7760    1.3761   24.2765 H   0  0  0  0  0  0
    4.9948   -0.4611   24.2285 H   0  0  0  0  0  0
    5.2951   -0.7046   22.5382 H   0  0  0  0  0  0
    6.7291   -2.5115   21.9934 H   0  0  0  0  0  0
    8.3543   -4.2457   22.7124 H   0  0  0  0  0  0
    9.3365   -4.1626   25.0001 H   0  0  0  0  0  0
    7.1002   -0.5818   25.8364 H   0  0  0  0  0  0
    0.5540    2.6908   23.1930 H   0  0  0  0  0  0
   -0.9065    3.3537   25.0897 H   0  0  0  0  0  0
    0.0399    4.8233   26.8851 H   0  0  0  0  0  0
    3.7132    4.9847   25.0274 H   0  0  0  0  0  0
    1.5099    3.4945   18.9494 H   0  0  0  0  0  0
    1.5273    6.2325   15.6398 H   0  0  0  0  0  0
    2.5541    6.7329   16.9559 H   0  0  0  0  0  0
    2.5696    3.8368   16.8985 H   0  0  0  0  0  0
    2.7905    4.3682   15.2477 H   0  0  0  0  0  0
    4.3724    4.9213   17.5222 H   0  0  0  0  0  0
  1  2  1  0  0  0
  1 40  1  0  0  0
  1 41  1  0  0  0
  1 42  1  0  0  0
  2  3  1  0  0  0
  3  4  2  0  0  0
  3 35  1  0  0  0
  4  5  1  0  0  0
  4 43  1  0  0  0
  5  6  2  0  0  0
  5 44  1  0  0  0
  6  7  1  0  0  0
  6 34  1  0  0  0
  7  8  1  0  0  0
  7 15  1  0  0  0
  8  9  2  0  0  0
  8 10  1  0  0  0
 10 11  2  0  0  0
 10 14  1  0  0  0
 11 12  1  0  0  0
 11 45  1  0  0  0
 12 13  2  0  0  0
 12 46  1  0  0  0
 13 14  1  0  0  0
 13 47  1  0  0  0
 15 16  1  0  0  0
 15 28  1  0  0  0
 15 48  1  0  0  0
 16 17  2  0  0  0
 16 18  1  0  0  0
 18 19  1  0  0  0
 18 49  1  0  0  0
 19 20  1  0  0  0
 19 50  1  0  0  0
 19 51  1  0  0  0
 20 21  1  0  0  0
 20 52  1  0  0  0
 20 53  1  0  0  0
 21 22  2  0  0  0
 21 27  1  0  0  0
 22 23  1  0  0  0
 22 54  1  0  0  0
 23 24  2  0  0  0
 23 55  1  0  0  0
 24 25  1  0  0  0
 24 56  1  0  0  0
 25 26  1  0  0  0
 25 27  2  0  0  0
 27 57  1  0  0  0
 28 29  2  0  0  0
 28 33  1  0  0  0
 29 30  1  0  0  0
 29 58  1  0  0  0
 30 31  2  0  0  0
 30 59  1  0  0  0
 31 32  1  0  0  0
 31 60  1  0  0  0
 32 33  2  0  0  0
 33 61  1  0  0  0
 34 35  2  0  0  0
 34 62  1  0  0  0
 35 36  1  0  0  0
 36 37  1  0  0  0
 37 38  1  0  0  0
 37 63  1  0  0  0
 37 64  1  0  0  0
 38 39  1  0  0  0
 38 65  1  0  0  0
 38 66  1  0  0  0
 39 67  1  0  0  0
M  END
> <s_m_entry_id>
160

> <s_m_entry_name>
Compounds-withfrags-for-validation-docking.1880

> <s_m_Source_Path>
/home/rodolpho/data/melina/maestro/glide-dock_XP_5RGK_M-PRO_VALIDATION

> <s_m_Source_File>
glide-dock_XP_5RGK_M-PRO_VALIDATION_pv.maegz

> <i_m_Source_File_Index>
160

> <CID>
ALP-POS-b0bc6a46-18

> <Potency>
99.5

> <pIC50>
4.00218

> <Source>
Postera

> <smiles>
COc1ccc(N(C(=O)c2ccco2)C(C(=O)NCCc2cccc(F)c2)c2cccnc2)cc1OCCO

> <Outcome>
Inactive

> <StandardizerResult>
Clear Stereo (ID: ClearStereo)
Wedge Clean (ID: WedgeClean)
Mesomerize (ID: Mesomerize)
Tautomerize (ID: Tautomerize)
Aromatize (ID: Aromatize)
Add Explicit Hydrogens (ID: AddExplicitH)
Neutralize (ID: Neutralize)
Clean 2D (ID: Clean2D)

> <chiral flag>
0

> <version>
0

> <i_lp_mmshare_version>
41011

> <i_f3d_flags>
0

> <s_epik_input>
W09IXVtDSDJdW0NIMl1PYzFbY0hdYyhbY0hdW2NIXWMxT1tDSDNdKU4oQyg9TyljMltjSF1bY0hdW2NIXW8yKVtDQEBIXShjM1tjSF1bY0hdW2NIXW5bY0hdMylDKD1PKVtOSF1bQ0gyXVtDSDJdYzRbY0hdW2NIXVtjSF1jKEYpW2NIXTQ=

> <s_epik_cmdline>
J2VwaWtfcHl0aG9uJywgJy1waHQnLCAnMC41JywgJy1waCcsICc3LjQnLCAnLXRuJywgJzgnLCAnLW1hJywgJzIwMCcsICctaW1hZScsICc8aW5maWxlLm1hZT4nLCAnLW9tYWUnLCAnPG91dGZpbGUubWFlPic=

> <r_lp_tautomer_probability>
1.0

> <r_epik_Ionization_Penalty>
6.0E-4

> <r_epik_Ionization_Penalty_Charging>
0.0

> <r_epik_Ionization_Penalty_Neutral>
6.0E-4

> <r_epik_State_Penalty>
0.0

> <r_epik_Charging_Adjusted_Penalty>
0.0

> <i_epik_Tot_Q>
0

> <i_epik_Tot_abs_Q>
0

> <s_lp_Force_Field>
OPLS3

> <r_lp_Energy>
72.3678

> <b_lp_Chiralities_Consistent>
1

> <s_lp_Variant>
ligprep_COVID_compounds-withfrags-smallmolecules-forvalidation.maegz:37-2

> <i_glide_original_lignum>
178

> <s_i_glide_gridfile>
glide-grid_5RGK_M-PRO_COVID

> <i_i_glide_lignum>
178

> <r_i_docking_score>
-5.55328830887618

> <r_i_glide_ligand_efficiency>
-0.142392007919902

> <r_i_glide_ligand_efficiency_sa>
-0.482881406062047

> <r_i_glide_ligand_efficiency_ln>
-1.19078265288611

> <r_glide_XP_GScore>
-5.55328830887618

> <r_i_glide_gscore>
-5.55328830887618

> <r_i_glide_evdw>
-26.8541297912598

> <r_i_glide_ecoul>
-19.2348213195801

> <r_i_glide_energy>
-46.0889511108398

> <r_i_glide_einternal>
7.24194049835205

> <r_i_glide_emodel>
-63.001676935244

> <r_glide_XP_HBond>
-3.12380264720697

> <i_i_glide_confnum>
1

> <i_i_glide_posenum>
1

> <r_i_glide_eff_state_penalty>
0.0

> <i_glide_XP_PoseRank>
1

> <MW>
533.2

> <cLogP>
3.94

> <TPSA>
114.13

> <Rotatable Bonds>
12

> <Fraction sp3>
0.21

> <HBA>
7

> <HBD>
2

> <s_epik_Chemistry_Notes>


> <Structure ID>


> <Submission Fragments>


$$$$
ligprep_COVID_compounds-withfrags-smallmolecules-forvalidation.maegz:57
                    3D
 Structure written by MMmdl.
 41 44  0  0  1  0            999 V2000
    6.3883    1.4827   16.9228 C   0  0  0  0  0  0
    5.9749    0.2031   17.3707 O   0  0  0  0  0  0
    5.7833    0.0728   18.7211 C   0  0  0  0  0  0
    5.9750   -1.1942   19.2937 C   0  0  0  0  0  0
    5.9750   -1.3637   20.6921 C   0  0  0  0  0  0
    5.7223   -0.2781   21.5687 C   0  0  0  0  0  0
    5.6867    0.0320   22.9828 C   0  0  0  0  0  0
    6.1081   -0.7516   24.0806 N   0  0  0  0  0  0
    6.8812   -1.8439   24.0610 C   0  0  0  0  0  0
    6.7750   -2.7666   23.2594 O   0  0  0  0  0  0
    7.9204   -1.9271   25.1819 C   0  0  2  0  0  0
    9.3276   -1.7501   24.5883 C   0  0  0  0  0  0
    9.8730   -3.0835   24.0437 C   0  0  0  0  0  0
    9.9415   -4.0639   25.0655 O   0  0  0  0  0  0
    8.8132   -4.2249   25.8357 C   0  0  0  0  0  0
    8.6952   -5.4141   26.5722 C   0  0  0  0  0  0
    7.5750   -5.6426   27.3913 C   0  0  0  0  0  0
    6.5580   -4.6774   27.4799 C   0  0  0  0  0  0
    5.1822   -4.9633   28.4802 Cl  0  0  0  0  0  0
    6.6718   -3.4741   26.7596 C   0  0  0  0  0  0
    7.7959   -3.2413   25.9366 C   0  0  0  0  0  0
    5.3477    1.2761   23.2131 N   0  0  0  0  0  0
    5.2120    1.8363   21.9920 N   0  0  0  0  0  0
    5.4288    0.9675   20.9474 C   0  0  0  0  0  0
    5.4453    1.1520   19.5595 C   0  0  0  0  0  0
    6.7724    1.4363   15.9043 H   0  0  0  0  0  0
    7.2244    1.8363   17.5217 H   0  0  0  0  0  0
    5.5750    2.2091   16.9468 H   0  0  0  0  0  0
    6.1862   -2.0379   18.6535 H   0  0  0  0  0  0
    6.1661   -2.3542   21.0673 H   0  0  0  0  0  0
    6.1431   -0.2217   24.9421 H   0  0  0  0  0  0
    7.7407   -1.1172   25.8916 H   0  0  0  0  0  0
    9.3288   -0.9849   23.8108 H   0  0  0  0  0  0
    9.9749   -1.3637   25.3703 H   0  0  0  0  0  0
    9.2574   -3.4627   23.2280 H   0  0  0  0  0  0
   10.8710   -2.9636   23.6277 H   0  0  0  0  0  0
    9.4701   -6.1637   26.5078 H   0  0  0  0  0  0
    7.5001   -6.5637   27.9487 H   0  0  0  0  0  0
    5.8933   -2.7296   26.8396 H   0  0  0  0  0  0
    5.1005    2.8466   21.8863 H   0  0  0  0  0  0
    5.2386    2.1392   19.1702 H   0  0  0  0  0  0
  1  2  1  0  0  0
  1 26  1  0  0  0
  1 27  1  0  0  0
  1 28  1  0  0  0
  2  3  1  0  0  0
  3 25  2  0  0  0
  3  4  1  0  0  0
  4 29  1  0  0  0
  4  5  2  0  0  0
  5 30  1  0  0  0
  5  6  1  0  0  0
  6 24  2  0  0  0
  6  7  1  0  0  0
  7 22  2  0  0  0
  7  8  1  0  0  0
  8  9  1  0  0  0
  8 31  1  0  0  0
  9 10  2  0  0  0
  9 11  1  0  0  0
 11 12  1  0  0  0
 11 21  1  0  0  0
 11 32  1  0  0  0
 12 13  1  0  0  0
 12 33  1  0  0  0
 12 34  1  0  0  0
 13 14  1  0  0  0
 13 35  1  0  0  0
 13 36  1  0  0  0
 14 15  1  0  0  0
 15 16  2  0  0  0
 15 21  1  0  0  0
 16 17  1  0  0  0
 16 37  1  0  0  0
 17 18  2  0  0  0
 17 38  1  0  0  0
 18 19  1  0  0  0
 18 20  1  0  0  0
 20 21  2  0  0  0
 20 39  1  0  0  0
 22 23  1  0  0  0
 23 40  1  0  0  0
 23 24  1  0  0  0
 24 25  1  0  0  0
 25 41  1  0  0  0
M  END
> <s_m_entry_id>
171

> <s_m_entry_name>
Compounds-withfrags-for-validation-docking.1860

> <s_m_Source_Path>
/home/rodolpho/data/melina/maestro/glide-dock_XP_5RGK_M-PRO_VALIDATION

> <s_m_Source_File>
glide-dock_XP_5RGK_M-PRO_VALIDATION_pv.maegz

> <i_m_Source_File_Index>
171

> <CID>
JAG-UCB-52b62a6f-12

> <Potency>
99.5

> <pIC50>
4.00218

> <Source>
Postera

> <smiles>
COc1ccc2c(NC(=O)C3CCOc4ccc(Cl)cc43)[nH]nc2c1

> <Outcome>
Inactive

> <StandardizerResult>
Clear Stereo (ID: ClearStereo)
Wedge Clean (ID: WedgeClean)
Mesomerize (ID: Mesomerize)
Tautomerize (ID: Tautomerize)
Aromatize (ID: Aromatize)
Add Explicit Hydrogens (ID: AddExplicitH)
Neutralize (ID: Neutralize)
Clean 2D (ID: Clean2D)

> <chiral flag>
0

> <version>
0

> <i_lp_mmshare_version>
41011

> <i_f3d_flags>
0

> <s_epik_input>
W0NIM11PYyhbY0hdW2NIXTEpW2NIXWMoYzEyKW5bbkhdYzJbTkhdQyg9TylbQ0BIXShbQ0gyXVtDSDJdTzMpYyhjMzQpW2NIXWMoQ2wpW2NIXVtjSF00

> <s_epik_cmdline>
J2VwaWtfcHl0aG9uJywgJy1waHQnLCAnMC41JywgJy1waCcsICc3LjQnLCAnLXRuJywgJzgnLCAnLW1hJywgJzIwMCcsICctaW1hZScsICc8aW5maWxlLm1hZT4nLCAnLW9tYWUnLCAnPG91dGZpbGUubWFlPic=

> <r_lp_tautomer_probability>
1.0

> <r_epik_Ionization_Penalty>
0.0

> <r_epik_Ionization_Penalty_Charging>
0.0

> <r_epik_Ionization_Penalty_Neutral>
0.0

> <r_epik_State_Penalty>
0.0

> <r_epik_Charging_Adjusted_Penalty>
0.0

> <i_epik_Tot_Q>
0

> <i_epik_Tot_abs_Q>
0

> <s_lp_Force_Field>
OPLS3

> <r_lp_Energy>
35.6321

> <b_lp_Chiralities_Consistent>
1

> <s_lp_Variant>
ligprep_COVID_compounds-withfrags-smallmolecules-forvalidation.maegz:57-1

> <i_glide_original_lignum>
225

> <s_i_glide_gridfile>
glide-grid_5RGK_M-PRO_COVID

> <i_i_glide_lignum>
225

> <r_i_docking_score>
-5.52616994384905

> <r_i_glide_ligand_efficiency>
-0.221046797753962

> <r_i_glide_ligand_efficiency_sa>
-0.646344756914236

> <r_i_glide_ligand_efficiency_ln>
-1.30986788264186

> <r_glide_XP_GScore>
-5.52616994384905

> <r_i_glide_gscore>
-5.52616994384905

> <r_i_glide_evdw>
-34.2516708374023

> <r_i_glide_ecoul>
-7.45140647888184

> <r_i_glide_energy>
-41.7030773162842

> <r_i_glide_einternal>
4.13365602493286

> <r_i_glide_emodel>
-49.1505462563093

> <r_glide_XP_HBond>
-1.37443003873151

> <i_i_glide_confnum>
1

> <i_i_glide_posenum>
24

> <r_i_glide_eff_state_penalty>
0.0

> <i_glide_XP_PoseRank>
1

> <MW>
357.09

> <cLogP>
3.73

> <TPSA>
76.24

> <Rotatable Bonds>
3

> <Fraction sp3>
0.22

> <HBA>
4

> <HBD>
2

> <s_epik_Chemistry_Notes>


> <Structure ID>


> <Submission Fragments>


$$$$
ligprep_COVID_compounds-withfrags-smallmolecules-forvalidation.maegz:38
                    3D
 Structure written by MMmdl.
 68 71  0  0  1  0            999 V2000
    5.6311    2.3452   31.2020 C   0  0  0  0  0  0
    6.5972    2.0681   30.2034 O   0  0  0  0  0  0
    6.4045    1.0363   29.3708 C   0  0  0  0  0  0
    5.4229    0.2918   29.3707 O   0  0  0  0  0  0
    7.5750    0.8727   28.3871 C   0  0  0  0  0  0
    7.5749   -0.4010   27.5052 C   0  0  0  0  0  0
    8.3888   -0.1298   25.9041 S   0  0  0  0  0  0
    8.1120   -1.6022   24.9660 C   0  0  0  0  0  0
    8.8664   -2.7526   25.2768 C   0  0  0  0  0  0
    8.7094   -3.9360   24.5342 C   0  0  0  0  0  0
    9.5750   -5.3558   24.9833 Cl  0  0  0  0  0  0
    7.8357   -3.9619   23.4349 C   0  0  0  0  0  0
    7.0733   -2.8222   23.1239 C   0  0  0  0  0  0
    7.1596   -1.6518   23.9135 C   0  0  0  0  0  0
    6.2533   -0.5802   23.6398 N   0  0  0  0  0  0
    4.9906   -0.5637   24.1707 C   0  0  0  0  0  0
    4.1155    0.1927   23.7447 O   0  0  0  0  0  0
    4.6147   -1.4122   25.3516 C   0  0  0  0  0  0
    5.0248   -2.6302   25.8416 C   0  0  0  0  0  0
    4.2460   -2.9068   26.9981 C   0  0  0  0  0  0
    3.3822   -1.8606   27.1245 C   0  0  0  0  0  0
    3.5749   -0.9639   26.1223 O   0  0  0  0  0  0
    6.7584    0.4615   22.6986 C   0  0  2  0  0  0
    6.7701    1.9283   23.2130 C   0  0  0  0  0  0
    5.7958    2.4206   23.7750 O   0  0  0  0  0  0
    7.8805    2.6363   22.9707 N   0  0  0  0  0  0
    8.1597    4.0000   23.3999 C   0  0  0  0  0  0
    9.3652    4.0383   24.3565 C   0  0  0  0  0  0
   10.6666    3.5520   23.7312 C   0  0  0  0  0  0
   11.0261    2.1875   23.7801 C   0  0  0  0  0  0
   12.2394    1.7515   23.2116 C   0  0  0  0  0  0
   13.0971    2.6780   22.5872 C   0  0  0  0  0  0
   12.7478    4.0407   22.5406 C   0  0  0  0  0  0
   13.5751    4.9350   21.9500 F   0  0  0  0  0  0
   11.5384    4.4753   23.1148 C   0  0  0  0  0  0
    6.0937    0.4190   21.3362 C   0  0  0  0  0  0
    5.1296    1.3472   20.8584 C   0  0  0  0  0  0
    4.6719    1.2786   19.5301 C   0  0  0  0  0  0
    5.1750    0.2685   18.6978 C   0  0  0  0  0  0
    6.0457   -0.6591   19.1291 N   0  0  0  0  0  0
    6.4691   -0.5788   20.4067 C   0  0  0  0  0  0
    5.9421    3.2092   31.7890 H   0  0  0  0  0  0
    5.5177    1.4966   31.8781 H   0  0  0  0  0  0
    4.6615    2.5680   30.7550 H   0  0  0  0  0  0
    7.5759    1.7569   27.7490 H   0  0  0  0  0  0
    8.4893    0.8928   28.9735 H   0  0  0  0  0  0
    8.1171   -1.2074   27.9901 H   0  0  0  0  0  0
    6.5668   -0.7702   27.3300 H   0  0  0  0  0  0
    9.5749   -2.7439   26.0912 H   0  0  0  0  0  0
    7.7264   -4.8638   22.8507 H   0  0  0  0  0  0
    6.3750   -2.8707   22.3016 H   0  0  0  0  0  0
    5.7918   -3.2686   25.4358 H   0  0  0  0  0  0
    4.3049   -3.7673   27.6486 H   0  0  0  0  0  0
    2.6005   -1.6106   27.8264 H   0  0  0  0  0  0
    7.8136    0.2319   22.5459 H   0  0  0  0  0  0
    8.5645    2.2069   22.3523 H   0  0  0  0  0  0
    8.3607    4.6042   22.5144 H   0  0  0  0  0  0
    7.2897    4.4479   23.8826 H   0  0  0  0  0  0
    9.5080    5.0580   24.7155 H   0  0  0  0  0  0
    9.1504    3.4386   25.2425 H   0  0  0  0  0  0
   10.3708    1.4739   24.2585 H   0  0  0  0  0  0
   12.5155    0.7081   23.2575 H   0  0  0  0  0  0
   14.0359    2.3458   22.1707 H   0  0  0  0  0  0
   11.2748    5.5216   23.0687 H   0  0  0  0  0  0
    4.7521    2.1453   21.4794 H   0  0  0  0  0  0
    3.9738    2.0129   19.1535 H   0  0  0  0  0  0
    4.8537    0.1912   17.6694 H   0  0  0  0  0  0
    7.1749   -1.3409   20.6914 H   0  0  0  0  0  0
  1  2  1  0  0  0
  1 42  1  0  0  0
  1 43  1  0  0  0
  1 44  1  0  0  0
  2  3  1  0  0  0
  3  4  2  0  0  0
  3  5  1  0  0  0
  5  6  1  0  0  0
  5 45  1  0  0  0
  5 46  1  0  0  0
  6  7  1  0  0  0
  6 47  1  0  0  0
  6 48  1  0  0  0
  7  8  1  0  0  0
  8  9  2  0  0  0
  8 14  1  0  0  0
  9 10  1  0  0  0
  9 49  1  0  0  0
 10 11  1  0  0  0
 10 12  2  0  0  0
 12 13  1  0  0  0
 12 50  1  0  0  0
 13 14  2  0  0  0
 13 51  1  0  0  0
 14 15  1  0  0  0
 15 16  1  0  0  0
 15 23  1  0  0  0
 16 17  2  0  0  0
 16 18  1  0  0  0
 18 19  2  0  0  0
 18 22  1  0  0  0
 19 20  1  0  0  0
 19 52  1  0  0  0
 20 21  2  0  0  0
 20 53  1  0  0  0
 21 22  1  0  0  0
 21 54  1  0  0  0
 23 24  1  0  0  0
 23 36  1  0  0  0
 23 55  1  0  0  0
 24 25  2  0  0  0
 24 26  1  0  0  0
 26 27  1  0  0  0
 26 56  1  0  0  0
 27 28  1  0  0  0
 27 57  1  0  0  0
 27 58  1  0  0  0
 28 29  1  0  0  0
 28 59  1  0  0  0
 28 60  1  0  0  0
 29 30  2  0  0  0
 29 35  1  0  0  0
 30 31  1  0  0  0
 30 61  1  0  0  0
 31 32  2  0  0  0
 31 62  1  0  0  0
 32 33  1  0  0  0
 32 63  1  0  0  0
 33 34  1  0  0  0
 33 35  2  0  0  0
 35 64  1  0  0  0
 36 37  2  0  0  0
 36 41  1  0  0  0
 37 38  1  0  0  0
 37 65  1  0  0  0
 38 39  2  0  0  0
 38 66  1  0  0  0
 39 40  1  0  0  0
 39 67  1  0  0  0
 40 41  2  0  0  0
 41 68  1  0  0  0
M  END
> <s_m_entry_id>
185

> <s_m_entry_name>
Compounds-withfrags-for-validation-docking.1879

> <s_m_Source_Path>
/home/rodolpho/data/melina/maestro/glide-dock_XP_5RGK_M-PRO_VALIDATION

> <s_m_Source_File>
glide-dock_XP_5RGK_M-PRO_VALIDATION_pv.maegz

> <i_m_Source_File_Index>
185

> <CID>
ALP-POS-b0bc6a46-17

> <Potency>
16.6406

> <pIC50>
4.77883

> <Source>
Postera

> <smiles>
COC(=O)CCSc1cc(Cl)ccc1N(C(=O)c1ccco1)C(C(=O)NCCc1cccc(F)c1)c1cccnc1

> <Outcome>
Inactive

> <StandardizerResult>
Clear Stereo (ID: ClearStereo)
Wedge Clean (ID: WedgeClean)
Mesomerize (ID: Mesomerize)
Tautomerize (ID: Tautomerize)
Aromatize (ID: Aromatize)
Add Explicit Hydrogens (ID: AddExplicitH)
Neutralize (ID: Neutralize)
Clean 2D (ID: Clean2D)

> <chiral flag>
0

> <version>
0

> <i_lp_mmshare_version>
41011

> <i_f3d_flags>
0

> <s_epik_input>
W0NIM11PQyg9TylbQ0gyXVtDSDJdU2MxW2NIXWMoQ2wpW2NIXVtjSF1jMU4oQyg9TyljMltjSF1bY0hdW2NIXW8yKVtDQEBIXShjM1tjSF1bY0hdW2NIXW5bY0hdMylDKD1PKVtOSF1bQ0gyXVtDSDJdYzRbY0hdW2NIXVtjSF1jKEYpW2NIXTQ=

> <s_epik_cmdline>
J2VwaWtfcHl0aG9uJywgJy1waHQnLCAnMC41JywgJy1waCcsICc3LjQnLCAnLXRuJywgJzgnLCAnLW1hJywgJzIwMCcsICctaW1hZScsICc8aW5maWxlLm1hZT4nLCAnLW9tYWUnLCAnPG91dGZpbGUubWFlPic=

> <r_lp_tautomer_probability>
1.0

> <r_epik_Ionization_Penalty>
6.0E-4

> <r_epik_Ionization_Penalty_Charging>
0.0

> <r_epik_Ionization_Penalty_Neutral>
6.0E-4

> <r_epik_State_Penalty>
0.0

> <r_epik_Charging_Adjusted_Penalty>
0.0

> <i_epik_Tot_Q>
0

> <i_epik_Tot_abs_Q>
0

> <s_lp_Force_Field>
OPLS3

> <r_lp_Energy>
67.5641

> <b_lp_Chiralities_Consistent>
1

> <s_lp_Variant>
ligprep_COVID_compounds-withfrags-smallmolecules-forvalidation.maegz:38-2

> <i_glide_original_lignum>
180

> <s_i_glide_gridfile>
glide-grid_5RGK_M-PRO_COVID

> <i_i_glide_lignum>
180

> <r_i_docking_score>
-5.48938174853982

> <r_i_glide_ligand_efficiency>
-0.133887359720483

> <r_i_glide_ligand_efficiency_sa>
-0.46167270148601

> <r_i_glide_ligand_efficiency_ln>
-1.16459060577766

> <r_glide_XP_GScore>
-5.48938174853982

> <r_i_glide_gscore>
-5.48938174853982

> <r_i_glide_evdw>
-39.2952613830566

> <r_i_glide_ecoul>
-10.0418329238892

> <r_i_glide_energy>
-49.3370943069458

> <r_i_glide_einternal>
14.6509761810303

> <r_i_glide_emodel>
-52.885052278923

> <r_glide_XP_HBond>
-0.805076338475092

> <i_i_glide_confnum>
8

> <i_i_glide_posenum>
6

> <r_i_glide_eff_state_penalty>
0.0

> <i_glide_XP_PoseRank>
1

> <s_epik_Chemistry_Notes>
This compound has an ester and may undergo hydrolysis at high or low pH.

> <MW>
595.13

> <cLogP>
5.87

> <TPSA>
101.74

> <Rotatable Bonds>
12

> <Fraction sp3>
0.2

> <HBA>
7

> <HBD>
1

> <Structure ID>


> <Submission Fragments>


$$$$
ligprep_COVID_compounds-withfrags-smallmolecules-forvalidation.maegz:89
                    3D
 Structure written by MMmdl.
 47 49  0  0  1  0            999 V2000
    9.9769    5.1708   24.5069 C   0  0  0  0  0  0
   11.2626    4.8152   23.7689 C   0  0  0  0  0  0
   12.1832    5.8361   23.4727 C   0  0  0  0  0  0
   13.3128    5.5316   22.6946 C   0  0  0  0  0  0
   13.5758    4.2983   22.2290 N   0  0  0  0  0  0
   12.7339    3.3024   22.5692 C   0  0  0  0  0  0
   11.5755    3.4927   23.3664 C   0  0  0  0  0  0
   10.7562    2.4308   23.8396 N   0  0  0  0  0  0
   11.0725    1.1328   23.9877 C   0  0  0  0  0  0
   11.9734    0.5763   23.3687 O   0  0  0  0  0  0
   10.2197    0.3304   24.9830 C   0  0  0  0  0  0
    8.8714   -0.1230   24.4358 C   0  0  0  0  0  0
    7.9756    0.7894   23.8328 C   0  0  0  0  0  0
    6.7411    0.3420   23.3378 C   0  0  0  0  0  0
    5.6555    1.4369   22.5714 Cl  0  0  0  0  0  0
    6.3828   -1.0062   23.4653 C   0  0  0  0  0  0
    7.2392   -1.9313   24.0908 C   0  0  0  0  0  0
    6.7793   -3.2564   24.1807 N   0  0  0  0  0  0
    7.4650   -4.3714   24.8377 C   0  0  2  0  0  0
    7.6341   -4.2085   26.3554 C   0  0  0  0  0  0
    8.7965   -5.1396   26.6928 C   0  0  0  0  0  0
    9.7455   -5.0083   25.4978 C   0  0  0  0  0  0
    8.8570   -4.7331   24.2700 C   0  0  1  0  0  0
    8.7743   -5.9111   23.4967 O   0  0  0  0  0  0
    8.4894   -1.4776   24.5743 C   0  0  0  0  0  0
    9.2118    5.4487   23.7823 H   0  0  0  0  0  0
   10.1369    6.0232   25.1658 H   0  0  0  0  0  0
    9.5749    4.3587   25.1120 H   0  0  0  0  0  0
   12.0117    6.8495   23.8024 H   0  0  0  0  0  0
   14.0181    6.3044   22.4281 H   0  0  0  0  0  0
   13.0259    2.3382   22.1854 H   0  0  0  0  0  0
    9.9298    2.7263   24.3377 H   0  0  0  0  0  0
   10.7899   -0.5444   25.3028 H   0  0  0  0  0  0
   10.0452    0.9309   25.8741 H   0  0  0  0  0  0
    8.2205    1.8347   23.7281 H   0  0  0  0  0  0
    5.4314   -1.3234   23.0756 H   0  0  0  0  0  0
    5.8738   -3.4520   23.7660 H   0  0  0  0  0  0
    6.8181   -5.2393   24.6988 H   0  0  0  0  0  0
    7.8975   -3.1883   26.6293 H   0  0  0  0  0  0
    6.7251   -4.4675   26.8989 H   0  0  0  0  0  0
    9.2752   -4.8946   27.6425 H   0  0  0  0  0  0
    8.4396   -6.1682   26.7611 H   0  0  0  0  0  0
   10.4120   -4.1639   25.6605 H   0  0  0  0  0  0
   10.3762   -5.8892   25.3851 H   0  0  0  0  0  0
    9.2875   -3.9482   23.6486 H   0  0  0  0  0  0
    9.6470   -6.0912   23.1610 H   0  0  0  0  0  0
    9.1680   -2.1588   25.0611 H   0  0  0  0  0  0
  1  2  1  0  0  0
  1 26  1  0  0  0
  1 27  1  0  0  0
  1 28  1  0  0  0
  2  3  2  0  0  0
  2  7  1  0  0  0
  3  4  1  0  0  0
  3 29  1  0  0  0
  4  5  2  0  0  0
  4 30  1  0  0  0
  5  6  1  0  0  0
  6  7  2  0  0  0
  6 31  1  0  0  0
  7  8  1  0  0  0
  8  9  1  0  0  0
  8 32  1  0  0  0
  9 10  2  0  0  0
  9 11  1  0  0  0
 11 12  1  0  0  0
 11 33  1  0  0  0
 11 34  1  0  0  0
 12 13  2  0  0  0
 12 25  1  0  0  0
 13 14  1  0  0  0
 13 35  1  0  0  0
 14 15  1  0  0  0
 14 16  2  0  0  0
 16 17  1  0  0  0
 16 36  1  0  0  0
 17 18  1  0  0  0
 17 25  2  0  0  0
 18 19  1  0  0  0
 18 37  1  0  0  0
 19 20  1  0  0  0
 19 23  1  0  0  0
 19 38  1  0  0  0
 20 21  1  0  0  0
 20 39  1  0  0  0
 20 40  1  0  0  0
 21 22  1  0  0  0
 21 41  1  0  0  0
 21 42  1  0  0  0
 22 23  1  0  0  0
 22 43  1  0  0  0
 22 44  1  0  0  0
 23 24  1  0  0  0
 23 45  1  0  0  0
 24 46  1  0  0  0
 25 47  1  0  0  0
M  END
> <s_m_entry_id>
191

> <s_m_entry_name>
Compounds-withfrags-for-validation-docking.1828

> <s_m_Source_Path>
/home/rodolpho/data/melina/maestro/glide-dock_XP_5RGK_M-PRO_VALIDATION

> <s_m_Source_File>
glide-dock_XP_5RGK_M-PRO_VALIDATION_pv.maegz

> <i_m_Source_File_Index>
191

> <CID>
MAT-POS-044491d2-1

> <Potency>
19.7025

> <pIC50>
4.70548

> <Source>
Postera

> <smiles>
Cc1ccncc1NC(=O)Cc1cc(Cl)cc(NC2CCCC2O)c1

> <Outcome>
Inactive

> <StandardizerResult>
Clear Stereo (ID: ClearStereo)
Wedge Clean (ID: WedgeClean)
Mesomerize (ID: Mesomerize)
Tautomerize (ID: Tautomerize)
Aromatize (ID: Aromatize)
Add Explicit Hydrogens (ID: AddExplicitH)
Neutralize (ID: Neutralize)
Clean 2D (ID: Clean2D)

> <chiral flag>
0

> <version>
0

> <i_lp_mmshare_version>
41011

> <i_f3d_flags>
0

> <s_epik_input>
W0NIM11jMVtjSF1bY0hdbltjSF1jMVtOSF1DKD1PKVtDSDJdYzJbY0hdYyhDbClbY0hdYyhbY0hdMilbTkhdW0NAQEhdM1tDSDJdW0NIMl1bQ0gyXVtDQEhdM1tPSF0=

> <s_epik_cmdline>
J2VwaWtfcHl0aG9uJywgJy1waHQnLCAnMC41JywgJy1waCcsICc3LjQnLCAnLXRuJywgJzgnLCAnLW1hJywgJzIwMCcsICctaW1hZScsICc8aW5maWxlLm1hZT4nLCAnLW9tYWUnLCAnPG91dGZpbGUubWFlPic=

> <r_lp_tautomer_probability>
1.0

> <r_epik_Ionization_Penalty>
0.0032

> <r_epik_Ionization_Penalty_Charging>
0.0

> <r_epik_Ionization_Penalty_Neutral>
0.0032

> <r_epik_State_Penalty>
0.0

> <r_epik_Charging_Adjusted_Penalty>
0.0

> <i_epik_Tot_Q>
0

> <i_epik_Tot_abs_Q>
0

> <s_lp_Force_Field>
OPLS3

> <r_lp_Energy>
46.2271

> <b_lp_Chiralities_Consistent>
1

> <s_lp_Variant>
ligprep_COVID_compounds-withfrags-smallmolecules-forvalidation.maegz:89-1

> <i_glide_original_lignum>
273

> <s_i_glide_gridfile>
glide-grid_5RGK_M-PRO_COVID

> <i_i_glide_lignum>
273

> <r_i_docking_score>
-5.47814409701598

> <r_i_glide_ligand_efficiency>
-0.219125763880639

> <r_i_glide_ligand_efficiency_sa>
-0.640727619798959

> <r_i_glide_ligand_efficiency_ln>
-1.29848431772393

> <r_glide_XP_GScore>
-5.47814409701598

> <r_i_glide_gscore>
-5.47814409701598

> <r_i_glide_evdw>
-36.6608123779297

> <r_i_glide_ecoul>
-7.77113008499146

> <r_i_glide_energy>
-44.4319424629211

> <r_i_glide_einternal>
4.49598026275635

> <r_i_glide_emodel>
-57.709513102418

> <r_glide_XP_HBond>
-1.16714743669495

> <i_i_glide_confnum>
1

> <i_i_glide_posenum>
17

> <r_i_glide_eff_state_penalty>
0.0

> <i_glide_XP_PoseRank>
1

> <MW>
359.14

> <cLogP>
3.55

> <TPSA>
74.25

> <Rotatable Bonds>
5

> <Fraction sp3>
0.37

> <HBA>
4

> <HBD>
3

> <Structure ID>
x11764

> <s_epik_Chemistry_Notes>


> <Submission Fragments>


$$$$
ligprep_COVID_compounds-withfrags-smallmolecules-forvalidation.maegz:24
                    3D
 Structure written by MMmdl.
 63 67  0  0  1  0            999 V2000
    6.3756   -1.3643   17.8461 N   0  0  0  0  0  0
    5.8088   -0.4091   18.6718 C   0  0  0  0  0  0
    5.1754    0.6678   18.0460 C   0  0  0  0  0  0
    4.4704    1.5925   18.8146 C   0  0  0  0  0  0
    4.4478    1.4553   20.2053 C   0  0  0  0  0  0
    3.8712    2.2344   21.1717 N   0  0  0  0  0  0
    4.1396    1.7641   22.4349 C   0  0  0  0  0  0
    3.6321    2.4783   23.6354 C   0  0  0  0  0  0
    3.5311    1.8172   24.6645 O   0  0  0  0  0  0
    3.4771    3.8354   23.6700 N   0  0  0  0  0  0
    2.2247    4.3073   23.4108 C   0  0  0  0  0  0
    1.5424    4.8798   24.2645 O   0  0  0  0  0  0
    1.6345    4.1390   22.0648 C   0  0  0  0  0  0
    0.3691    3.7856   21.6780 C   0  0  0  0  0  0
    0.3337    3.8835   20.2575 C   0  0  0  0  0  0
    1.5738    4.3101   19.8820 C   0  0  0  0  0  0
    2.3659    4.4931   20.9732 O   0  0  0  0  0  0
    4.2489    4.5592   24.7438 C   0  0  1  0  0  0
    5.7594    4.2330   24.8775 C   0  0  0  0  0  0
    6.2791    4.2369   25.9922 O   0  0  0  0  0  0
    6.4283    3.8773   23.7713 N   0  0  0  0  0  0
    7.6800    3.1313   23.7283 C   0  0  0  0  0  0
    8.9265    3.9966   23.9830 C   0  0  0  0  0  0
   10.2337    3.2378   23.7693 C   0  0  0  0  0  0
   10.4104    1.9304   24.2784 C   0  0  0  0  0  0
   11.6112    1.2345   24.0490 C   0  0  0  0  0  0
   12.6498    1.8382   23.3145 C   0  0  0  0  0  0
   12.4908    3.1484   22.8228 C   0  0  0  0  0  0
   13.4976    3.7441   22.1393 F   0  0  0  0  0  0
   11.2868    3.8412   23.0458 C   0  0  0  0  0  0
    4.2474    6.0633   24.6162 C   0  0  0  0  0  0
    3.8744    6.8648   25.7202 C   0  0  0  0  0  0
    3.8494    8.2663   25.6062 C   0  0  0  0  0  0
    4.2105    8.8403   24.3759 C   0  0  0  0  0  0
    4.5945    8.1093   23.3114 N   0  0  0  0  0  0
    4.6016    6.7666   23.4380 C   0  0  0  0  0  0
    4.8833    0.6109   22.2994 C   0  0  0  0  0  0
    5.1217    0.4099   20.8894 C   0  0  0  0  0  0
    5.8154   -0.5297   20.0816 C   0  0  0  0  0  0
    6.8164   -2.1519   18.3073 H   0  0  0  0  0  0
    5.7860   -1.6719   17.0698 H   0  0  0  0  0  0
    5.1853    0.7701   16.9743 H   0  0  0  0  0  0
    3.9674    2.4227   18.3407 H   0  0  0  0  0  0
    3.4356    3.1344   20.9929 H   0  0  0  0  0  0
   -0.4342    3.4990   22.3413 H   0  0  0  0  0  0
   -0.4939    3.6789   19.5964 H   0  0  0  0  0  0
    2.0475    4.5439   18.9360 H   0  0  0  0  0  0
    3.7934    4.2817   25.6979 H   0  0  0  0  0  0
    5.9872    4.0530   22.8553 H   0  0  0  0  0  0
    7.6180    2.3108   24.4432 H   0  0  0  0  0  0
    7.7458    2.6762   22.7398 H   0  0  0  0  0  0
    8.9022    4.8629   23.3189 H   0  0  0  0  0  0
    8.9157    4.3847   25.0018 H   0  0  0  0  0  0
    9.6288    1.4511   24.8488 H   0  0  0  0  0  0
   11.7404    0.2408   24.4469 H   0  0  0  0  0  0
   13.5763    1.3099   23.1462 H   0  0  0  0  0  0
   11.1742    4.8394   22.6466 H   0  0  0  0  0  0
    3.6023    6.4041   26.6570 H   0  0  0  0  0  0
    3.5613    8.8843   26.4430 H   0  0  0  0  0  0
    4.2080    9.9114   24.2464 H   0  0  0  0  0  0
    4.9097    6.2348   22.5550 H   0  0  0  0  0  0
    5.2547   -0.0171   23.0968 H   0  0  0  0  0  0
    6.3219   -1.3598   20.5538 H   0  0  0  0  0  0
  1  2  1  0  0  0
  1 40  1  0  0  0
  1 41  1  0  0  0
  2  3  2  0  0  0
  2 39  1  0  0  0
  3  4  1  0  0  0
  3 42  1  0  0  0
  4  5  2  0  0  0
  4 43  1  0  0  0
  5  6  1  0  0  0
  5 38  1  0  0  0
  6  7  1  0  0  0
  6 44  1  0  0  0
  7  8  1  0  0  0
  7 37  2  0  0  0
  8  9  2  0  0  0
  8 10  1  0  0  0
 10 11  1  0  0  0
 10 18  1  0  0  0
 11 12  2  0  0  0
 11 13  1  0  0  0
 13 14  2  0  0  0
 13 17  1  0  0  0
 14 15  1  0  0  0
 14 45  1  0  0  0
 15 16  2  0  0  0
 15 46  1  0  0  0
 16 17  1  0  0  0
 16 47  1  0  0  0
 18 19  1  0  0  0
 18 31  1  0  0  0
 18 48  1  0  0  0
 19 20  2  0  0  0
 19 21  1  0  0  0
 21 22  1  0  0  0
 21 49  1  0  0  0
 22 23  1  0  0  0
 22 50  1  0  0  0
 22 51  1  0  0  0
 23 24  1  0  0  0
 23 52  1  0  0  0
 23 53  1  0  0  0
 24 25  2  0  0  0
 24 30  1  0  0  0
 25 26  1  0  0  0
 25 54  1  0  0  0
 26 27  2  0  0  0
 26 55  1  0  0  0
 27 28  1  0  0  0
 27 56  1  0  0  0
 28 29  1  0  0  0
 28 30  2  0  0  0
 30 57  1  0  0  0
 31 32  2  0  0  0
 31 36  1  0  0  0
 32 33  1  0  0  0
 32 58  1  0  0  0
 33 34  2  0  0  0
 33 59  1  0  0  0
 34 35  1  0  0  0
 34 60  1  0  0  0
 35 36  2  0  0  0
 36 61  1  0  0  0
 37 38  1  0  0  0
 37 62  1  0  0  0
 38 39  2  0  0  0
 39 63  1  0  0  0
M  END
> <s_m_entry_id>
203

> <s_m_entry_name>
Compounds-withfrags-for-validation-docking.1893

> <s_m_Source_Path>
/home/rodolpho/data/melina/maestro/glide-dock_XP_5RGK_M-PRO_VALIDATION

> <s_m_Source_File>
glide-dock_XP_5RGK_M-PRO_VALIDATION_pv.maegz

> <i_m_Source_File_Index>
203

> <CID>
ALP-POS-02c6a514-10

> <Potency>
99.5

> <pIC50>
4.00218

> <Source>
Postera

> <smiles>
Nc1ccc2[nH]c(C(=O)N(C(=O)c3ccco3)C(C(=O)NCCc3cccc(F)c3)c3cccnc3)cc2c1

> <Outcome>
Inactive

> <StandardizerResult>
Clear Stereo (ID: ClearStereo)
Wedge Clean (ID: WedgeClean)
Mesomerize (ID: Mesomerize)
Tautomerize (ID: Tautomerize)
Aromatize (ID: Aromatize)
Add Explicit Hydrogens (ID: AddExplicitH)
Neutralize (ID: Neutralize)
Clean 2D (ID: Clean2D)

> <chiral flag>
0

> <version>
0

> <i_lp_mmshare_version>
41011

> <i_f3d_flags>
0

> <s_epik_input>
W2NIXTFbY0hdYyhbTkgyXSlbY0hdYyhjMTIpW2NIXWMoW25IXTIpQyg9TylOKEMoPU8pYzNbY0hdW2NIXVtjSF1vMylbQ0BIXShjNFtjSF1bY0hdW2NIXW5bY0hdNClDKD1PKVtOSF1bQ0gyXVtDSDJdYzVbY0hdW2NIXVtjSF1jKEYpW2NIXTU=

> <s_epik_cmdline>
J2VwaWtfcHl0aG9uJywgJy1waHQnLCAnMC41JywgJy1waCcsICc3LjQnLCAnLXRuJywgJzgnLCAnLW1hJywgJzIwMCcsICctaW1hZScsICc8aW5maWxlLm1hZT4nLCAnLW9tYWUnLCAnPG91dGZpbGUubWFlPic=

> <r_lp_tautomer_probability>
1.0

> <r_epik_Ionization_Penalty>
7.0E-4

> <r_epik_Ionization_Penalty_Charging>
0.0

> <r_epik_Ionization_Penalty_Neutral>
7.0E-4

> <r_epik_State_Penalty>
0.0

> <r_epik_Charging_Adjusted_Penalty>
0.0

> <i_epik_Tot_Q>
0

> <i_epik_Tot_abs_Q>
0

> <s_lp_Force_Field>
OPLS3

> <r_lp_Energy>
64.6091

> <b_lp_Chiralities_Consistent>
1

> <s_lp_Variant>
ligprep_COVID_compounds-withfrags-smallmolecules-forvalidation.maegz:24-1

> <i_glide_original_lignum>
141

> <s_i_glide_gridfile>
glide-grid_5RGK_M-PRO_COVID

> <i_i_glide_lignum>
141

> <r_i_docking_score>
-5.45159975598697

> <r_i_glide_ligand_efficiency>
-0.139784609127871

> <r_i_glide_ligand_efficiency_sa>
-0.474039165452808

> <r_i_glide_ligand_efficiency_ln>
-1.16897774054543

> <r_glide_XP_GScore>
-5.45159975598697

> <r_i_glide_gscore>
-5.45159975598697

> <r_i_glide_evdw>
-32.1970138549805

> <r_i_glide_ecoul>
-16.2953586578369

> <r_i_glide_energy>
-48.4923725128174

> <r_i_glide_einternal>
12.9525766372681

> <r_i_glide_emodel>
-54.6002857987872

> <r_glide_XP_HBond>
-1.48735526826848

> <i_i_glide_confnum>
1

> <i_i_glide_posenum>
10

> <r_i_glide_eff_state_penalty>
0.0

> <i_glide_XP_PoseRank>
1

> <MW>
525.18

> <cLogP>
4.26

> <TPSA>
134.32

> <Rotatable Bonds>
8

> <Fraction sp3>
0.1

> <HBA>
6

> <HBD>
3

> <s_epik_Chemistry_Notes>


> <Structure ID>


> <Submission Fragments>


$$$$
ligprep_COVID_compounds-withfrags-smallmolecules-forvalidation.maegz:39
                    3D
 Structure written by MMmdl.
 70 75  0  0  1  0            999 V2000
    3.9883    3.4885   25.3772 O   0  0  0  0  0  0
    4.3374    3.5231   24.1973 C   0  0  0  0  0  0
    5.4146    4.1877   23.7708 N   0  0  0  0  0  0
    6.4699    4.7952   24.5663 C   0  0  0  0  0  0
    7.4996    5.4302   23.6061 C   0  0  0  0  0  0
    8.8193    5.8416   24.2444 C   0  0  0  0  0  0
    8.8522    6.6442   25.4058 C   0  0  0  0  0  0
   10.0882    7.0344   25.9608 C   0  0  0  0  0  0
   11.2959    6.6366   25.3535 C   0  0  0  0  0  0
   11.2687    5.8400   24.1928 C   0  0  0  0  0  0
   12.4288    5.4480   23.6134 F   0  0  0  0  0  0
   10.0345    5.4417   23.6452 C   0  0  0  0  0  0
    3.6031    2.7387   23.0901 C   0  0  2  0  0  0
    2.3670    2.0376   23.6031 C   0  0  0  0  0  0
    2.3299    1.1400   24.6982 C   0  0  0  0  0  0
    1.1324    0.4922   25.0495 C   0  0  0  0  0  0
   -0.0210    0.7682   24.2960 C   0  0  0  0  0  0
   -0.0253    1.6220   23.2563 N   0  0  0  0  0  0
    1.1349    2.2332   22.9351 C   0  0  0  0  0  0
    4.4768    1.8269   22.2969 N   0  0  0  0  0  0
    4.2437    1.7307   20.9542 C   0  0  0  0  0  0
    3.2071    2.1859   20.4575 O   0  0  0  0  0  0
    5.1512    0.9730   20.0432 C   0  0  0  0  0  0
    6.4681    0.5831   20.0751 C   0  0  0  0  0  0
    6.7330   -0.1449   18.8836 C   0  0  0  0  0  0
    5.5754   -0.1091   18.1702 C   0  0  0  0  0  0
    4.6345    0.6086   18.8358 O   0  0  0  0  0  0
    5.4308    1.0087   22.9887 C   0  0  0  0  0  0
    5.0063   -0.2132   23.5261 C   0  0  0  0  0  0
    5.9157   -1.0852   24.1570 C   0  0  0  0  0  0
    7.2903   -0.7875   24.2225 C   0  0  0  0  0  0
    8.2252   -1.8358   24.6853 C   0  0  0  0  0  0
    9.4542   -1.9048   24.1706 N   0  0  0  0  0  0
    9.9490   -3.0977   24.5699 N   0  0  0  0  0  0
    9.1088   -3.7098   25.4632 C   0  0  0  0  0  0
    8.0053   -2.9316   25.5815 C   0  0  0  0  0  0
    6.8669   -3.3455   26.4709 C   0  0  0  0  0  0
    7.3085   -4.3189   27.4263 O   0  0  0  0  0  0
    8.0129   -5.4347   26.8612 C   0  0  0  0  0  0
    9.3392   -4.9789   26.2053 C   0  0  0  0  0  0
    7.7088    0.4829   23.7577 C   0  0  0  0  0  0
    6.7843    1.3820   23.1697 C   0  0  0  0  0  0
    5.5535    4.2367   22.7430 H   0  0  0  0  0  0
    6.0537    5.5338   25.2543 H   0  0  0  0  0  0
    6.9438    4.0147   25.1661 H   0  0  0  0  0  0
    7.7158    4.7240   22.8029 H   0  0  0  0  0  0
    7.0603    6.3030   23.1206 H   0  0  0  0  0  0
    7.9339    6.9683   25.8730 H   0  0  0  0  0  0
   10.1084    7.6437   26.8520 H   0  0  0  0  0  0
   12.2412    6.9390   25.7811 H   0  0  0  0  0  0
   10.0264    4.8302   22.7568 H   0  0  0  0  0  0
    3.2804    3.5589   22.4426 H   0  0  0  0  0  0
    3.2172    0.9302   25.2718 H   0  0  0  0  0  0
    1.1000   -0.1983   25.8797 H   0  0  0  0  0  0
   -0.9616    0.2921   24.5316 H   0  0  0  0  0  0
    1.0802    2.9004   22.0889 H   0  0  0  0  0  0
    7.1795    0.7657   20.8562 H   0  0  0  0  0  0
    7.6504   -0.6361   18.5942 H   0  0  0  0  0  0
    5.2507   -0.5291   17.2304 H   0  0  0  0  0  0
    3.9800   -0.5281   23.4137 H   0  0  0  0  0  0
    5.5517   -2.0361   24.5144 H   0  0  0  0  0  0
   10.8608   -3.4359   24.2916 H   0  0  0  0  0  0
    6.4474   -2.4928   27.0049 H   0  0  0  0  0  0
    6.0528   -3.7837   25.8944 H   0  0  0  0  0  0
    8.2093   -6.1713   27.6387 H   0  0  0  0  0  0
    7.3714   -5.9197   26.1227 H   0  0  0  0  0  0
    9.7357   -5.7529   25.5455 H   0  0  0  0  0  0
   10.0844   -4.8124   26.9832 H   0  0  0  0  0  0
    8.7531    0.7535   23.8035 H   0  0  0  0  0  0
    7.1402    2.3236   22.7785 H   0  0  0  0  0  0
  1  2  2  0  0  0
  2  3  1  0  0  0
  2 13  1  0  0  0
  3  4  1  0  0  0
  3 43  1  0  0  0
  4  5  1  0  0  0
  4 44  1  0  0  0
  4 45  1  0  0  0
  5  6  1  0  0  0
  5 46  1  0  0  0
  5 47  1  0  0  0
  6  7  2  0  0  0
  6 12  1  0  0  0
  7  8  1  0  0  0
  7 48  1  0  0  0
  8  9  2  0  0  0
  8 49  1  0  0  0
  9 10  1  0  0  0
  9 50  1  0  0  0
 10 11  1  0  0  0
 10 12  2  0  0  0
 12 51  1  0  0  0
 13 14  1  0  0  0
 13 20  1  0  0  0
 13 52  1  0  0  0
 14 15  2  0  0  0
 14 19  1  0  0  0
 15 16  1  0  0  0
 15 53  1  0  0  0
 16 17  2  0  0  0
 16 54  1  0  0  0
 17 18  1  0  0  0
 17 55  1  0  0  0
 18 19  2  0  0  0
 19 56  1  0  0  0
 20 21  1  0  0  0
 20 28  1  0  0  0
 21 22  2  0  0  0
 21 23  1  0  0  0
 23 24  2  0  0  0
 23 27  1  0  0  0
 24 25  1  0  0  0
 24 57  1  0  0  0
 25 26  2  0  0  0
 25 58  1  0  0  0
 26 27  1  0  0  0
 26 59  1  0  0  0
 28 29  2  0  0  0
 28 42  1  0  0  0
 29 30  1  0  0  0
 29 60  1  0  0  0
 30 31  2  0  0  0
 30 61  1  0  0  0
 31 32  1  0  0  0
 31 41  1  0  0  0
 32 33  2  0  0  0
 32 36  1  0  0  0
 33 34  1  0  0  0
 34 35  1  0  0  0
 34 62  1  0  0  0
 35 36  2  0  0  0
 35 40  1  0  0  0
 36 37  1  0  0  0
 37 38  1  0  0  0
 37 63  1  0  0  0
 37 64  1  0  0  0
 38 39  1  0  0  0
 39 40  1  0  0  0
 39 65  1  0  0  0
 39 66  1  0  0  0
 40 67  1  0  0  0
 40 68  1  0  0  0
 41 42  2  0  0  0
 41 69  1  0  0  0
 42 70  1  0  0  0
M  END
> <s_m_entry_id>
204

> <s_m_entry_name>
Compounds-withfrags-for-validation-docking.1878

> <s_m_Source_Path>
/home/rodolpho/data/melina/maestro/glide-dock_XP_5RGK_M-PRO_VALIDATION

> <s_m_Source_File>
glide-dock_XP_5RGK_M-PRO_VALIDATION_pv.maegz

> <i_m_Source_File_Index>
204

> <CID>
ALP-POS-b0bc6a46-16

> <Potency>
43.0301

> <pIC50>
4.36623

> <Source>
Postera

> <smiles>
O=C(NCCc1cccc(F)c1)C(c1cccnc1)N(C(=O)c1ccco1)c1ccc(-c2n[nH]c3c2COCC3)cc1

> <Outcome>
Inactive

> <StandardizerResult>
Clear Stereo (ID: ClearStereo)
Wedge Clean (ID: WedgeClean)
Mesomerize (ID: Mesomerize)
Tautomerize (ID: Tautomerize)
Aromatize (ID: Aromatize)
Add Explicit Hydrogens (ID: AddExplicitH)
Neutralize (ID: Neutralize)
Clean 2D (ID: Clean2D)

> <chiral flag>
0

> <version>
0

> <i_lp_mmshare_version>
41011

> <i_f3d_flags>
0

> <s_epik_input>
RmMoW2NIXTEpW2NIXVtjSF1bY0hdYzFbQ0gyXVtDSDJdW05IXUMoPU8pW0NASF0oYzJbY0hdW2NIXVtjSF1uW2NIXTIpTihDKD1PKWMzW2NIXVtjSF1bY0hdbzMpYzRbY0hdW2NIXWMoW2NIXVtjSF00KS1jKG5bbkhdNSljKGM1NilbQ0gyXU9bQ0gyXVtDSDJdNg==

> <s_epik_cmdline>
J2VwaWtfcHl0aG9uJywgJy1waHQnLCAnMC41JywgJy1waCcsICc3LjQnLCAnLXRuJywgJzgnLCAnLW1hJywgJzIwMCcsICctaW1hZScsICc8aW5maWxlLm1hZT4nLCAnLW9tYWUnLCAnPG91dGZpbGUubWFlPic=

> <r_lp_tautomer_probability>
0.5

> <r_epik_Ionization_Penalty>
6.0E-4

> <r_epik_Ionization_Penalty_Charging>
0.0

> <r_epik_Ionization_Penalty_Neutral>
6.0E-4

> <r_epik_State_Penalty>
0.4107

> <r_epik_Charging_Adjusted_Penalty>
0.41068

> <i_epik_Tot_Q>
0

> <i_epik_Tot_abs_Q>
0

> <s_lp_Force_Field>
OPLS3

> <r_lp_Energy>
77.2857

> <b_lp_Chiralities_Consistent>
1

> <s_lp_Variant>
ligprep_COVID_compounds-withfrags-smallmolecules-forvalidation.maegz:39-2

> <i_glide_original_lignum>
182

> <s_i_glide_gridfile>
glide-grid_5RGK_M-PRO_COVID

> <i_i_glide_lignum>
182

> <r_i_docking_score>
-5.44933238366026

> <r_i_glide_ligand_efficiency>
-0.129746009134768

> <r_i_glide_ligand_efficiency_sa>
-0.451000584258237

> <r_i_glide_ligand_efficiency_ln>
-1.15021367522768

> <r_glide_XP_GScore>
-5.86001238366026

> <r_i_glide_gscore>
-5.86001238366026

> <r_i_glide_evdw>
-37.6346664428711

> <r_i_glide_ecoul>
-19.8468761444092

> <r_i_glide_energy>
-57.4815425872803

> <r_i_glide_einternal>
6.73268032073975

> <r_i_glide_emodel>
-65.9654552663573

> <r_glide_XP_HBond>
-1.09224746347817

> <i_i_glide_confnum>
1

> <i_i_glide_posenum>
12

> <r_i_glide_eff_state_penalty>
0.41068

> <i_glide_XP_PoseRank>
1

> <MW>
565.21

> <cLogP>
5.02

> <TPSA>
113.35

> <Rotatable Bonds>
9

> <Fraction sp3>
0.19

> <HBA>
6

> <HBD>
2

> <s_epik_Chemistry_Notes>


> <Structure ID>


> <Submission Fragments>


$$$$
ligprep_COVID_compounds-withfrags-smallmolecules-forvalidation.maegz:1
                    3D
 Structure written by MMmdl.
 43 45  0  0  1  0            999 V2000
   10.1350   -5.2899   25.4357 C   0  0  0  0  0  0
    9.6347   -4.5144   24.2112 C   0  0  0  0  0  0
   10.6069   -3.3852   23.8382 C   0  0  0  0  0  0
    8.3290   -3.9610   24.4667 N   0  0  0  0  0  0
    7.5267   -3.1315   23.7154 C   0  0  0  0  0  0
    7.4928   -3.1509   22.3876 N   0  0  0  0  0  0
    6.7714   -2.0044   22.1056 C   0  0  0  0  0  0
    6.3754   -1.4152   20.8775 C   0  0  0  0  0  0
    5.6369   -0.2177   20.8356 C   0  0  0  0  0  0
    5.2429    0.3990   22.0387 C   0  0  0  0  0  0
    5.6276   -0.1636   23.2675 C   0  0  0  0  0  0
    6.3696   -1.3609   23.3106 C   0  0  0  0  0  0
    6.7918   -2.1850   24.3480 N   0  0  0  0  0  0
    6.5615   -1.9291   25.8340 C   0  0  1  0  0  0
    5.0964   -2.1378   26.2655 C   0  0  1  0  0  0
    4.1055   -1.6902   25.3707 O   0  0  0  0  0  0
    5.0248   -3.6341   26.5377 C   0  0  1  0  0  0
    4.7879   -4.3991   25.3703 O   0  0  0  0  0  0
    6.4189   -3.8795   27.1229 C   0  0  1  0  0  0
    7.0083   -5.3005   27.0387 C   0  0  0  0  0  0
    6.3385   -6.1692   27.9207 O   0  0  0  0  0  0
    7.2829   -2.8641   26.5924 O   0  0  0  0  0  0
    4.2411    1.8048   22.0381 Cl  0  0  0  0  0  0
    5.2142    0.4610   19.3035 Cl  0  0  0  0  0  0
   11.1525   -5.6431   25.2850 H   0  0  0  0  0  0
    9.5164   -6.1656   25.6347 H   0  0  0  0  0  0
   10.1464   -4.6675   26.3312 H   0  0  0  0  0  0
    9.5238   -5.2005   23.3734 H   0  0  0  0  0  0
   11.6261   -3.7627   23.7813 H   0  0  0  0  0  0
   10.5817   -2.5804   24.5701 H   0  0  0  0  0  0
   10.3649   -2.9638   22.8661 H   0  0  0  0  0  0
    8.1785   -3.7791   25.4542 H   0  0  0  0  0  0
    6.6559   -1.8662   19.9453 H   0  0  0  0  0  0
    5.2888    0.2960   24.1705 H   0  0  0  0  0  0
    6.9317   -0.9164   25.9899 H   0  0  0  0  0  0
    4.9658   -1.6025   27.2072 H   0  0  0  0  0  0
    4.2073   -2.1635   24.5505 H   0  0  0  0  0  0
    4.2425   -3.8736   27.2594 H   0  0  0  0  0  0
    5.4803   -4.2269   24.7487 H   0  0  0  0  0  0
    6.3397   -3.6377   28.1707 H   0  0  0  0  0  0
    6.9738   -5.7080   26.0285 H   0  0  0  0  0  0
    8.0524   -5.2828   27.3490 H   0  0  0  0  0  0
    6.6771   -7.0491   27.7724 H   0  0  0  0  0  0
  1  2  1  0  0  0
  1 25  1  0  0  0
  1 26  1  0  0  0
  1 27  1  0  0  0
  2  3  1  0  0  0
  2  4  1  0  0  0
  2 28  1  0  0  0
  3 29  1  0  0  0
  3 30  1  0  0  0
  3 31  1  0  0  0
  4  5  1  0  0  0
  4 32  1  0  0  0
  5  6  2  0  0  0
  5 13  1  0  0  0
  6  7  1  0  0  0
  7  8  2  0  0  0
  7 12  1  0  0  0
  8  9  1  0  0  0
  8 33  1  0  0  0
  9 10  2  0  0  0
  9 24  1  0  0  0
 10 11  1  0  0  0
 10 23  1  0  0  0
 11 12  2  0  0  0
 11 34  1  0  0  0
 12 13  1  0  0  0
 13 14  1  0  0  0
 14 15  1  0  0  0
 14 22  1  0  0  0
 14 35  1  0  0  0
 15 16  1  0  0  0
 15 17  1  0  0  0
 15 36  1  0  0  0
 16 37  1  0  0  0
 17 18  1  0  0  0
 17 19  1  0  0  0
 17 38  1  0  0  0
 18 39  1  0  0  0
 19 20  1  0  0  0
 19 22  1  0  0  0
 19 40  1  0  0  0
 20 21  1  0  0  0
 20 41  1  0  0  0
 20 42  1  0  0  0
 21 43  1  0  0  0
M  END
> <s_m_entry_id>
212

> <s_m_entry_name>
Compounds-withfrags-for-validation-docking.1916

> <s_m_Source_Path>
/home/rodolpho/data/melina/maestro/glide-dock_XP_5RGK_M-PRO_VALIDATION

> <s_m_Source_File>
glide-dock_XP_5RGK_M-PRO_VALIDATION_pv.maegz

> <i_m_Source_File_Index>
212

> <CID>
Maribavir

> <pIC50>
4.30103

> <Source>
https://doi.org/10.1101/2020.03.23.004580

> <smiles>
C(C(C([H])([H])[H])(N(C1=NC2=C(C(=C(C([H])=C2N1C1(C(O[H])([H])C(O[H])([H])C(C(O[H])([H])[H])([H])O1)[H])Cl)Cl)[H])[H])[H])([H])([H])[H]

> <Outcome>
Inactive

> <StandardizerResult>
Clear Stereo (ID: ClearStereo)
Wedge Clean (ID: WedgeClean)
Mesomerize (ID: Mesomerize)
Tautomerize (ID: Tautomerize)
Aromatize (ID: Aromatize)
Add Explicit Hydrogens (ID: AddExplicitH)
Neutralize (ID: Neutralize)
Clean 2D (ID: Clean2D)

> <chiral flag>
0

> <version>
0

> <i_lp_mmshare_version>
41011

> <i_f3d_flags>
0

> <s_epik_input>
W2NIXTFjKENsKWMoQ2wpW2NIXWMoYzEyKW4oYyhuMilbTkhdW0NIXShbQ0gzXSlbQ0gzXSlbQ0BIXTNbQ0BASF0oW09IXSlbQ0BASF0oW09IXSlbQ0BIXShPMylbQ0gyXVtPSF0=

> <s_epik_cmdline>
J2VwaWtfcHl0aG9uJywgJy1waHQnLCAnMC41JywgJy1waCcsICc3LjQnLCAnLXRuJywgJzgnLCAnLW1hJywgJzIwMCcsICctaW1hZScsICc8aW5maWxlLm1hZT4nLCAnLW9tYWUnLCAnPG91dGZpbGUubWFlPic=

> <r_epik_Ionization_Penalty>
0.01

> <r_epik_Ionization_Penalty_Charging>
0.0

> <r_epik_Ionization_Penalty_Neutral>
0.01

> <r_epik_State_Penalty>
0.0076

> <r_epik_Charging_Adjusted_Penalty>
0.00760364

> <i_epik_Tot_Q>
0

> <i_epik_Tot_abs_Q>
0

> <s_lp_Force_Field>
OPLS3

> <r_lp_Energy>
17.147

> <b_lp_Chiralities_Consistent>
1

> <s_lp_Variant>
ligprep_COVID_compounds-withfrags-smallmolecules-forvalidation.maegz:1-3

> <i_glide_original_lignum>
3

> <s_i_glide_gridfile>
glide-grid_5RGK_M-PRO_COVID

> <i_i_glide_lignum>
3

> <r_i_docking_score>
-5.43874417592075

> <r_i_glide_ligand_efficiency>
-0.226614340663365

> <r_i_glide_ligand_efficiency_sa>
-0.653668870202004

> <r_i_glide_ligand_efficiency_ln>
-1.30174104900602

> <r_glide_XP_GScore>
-5.44634781592075

> <r_i_glide_gscore>
-5.44634781592075

> <r_i_glide_evdw>
-22.0208225250244

> <r_i_glide_ecoul>
-12.344349861145

> <r_i_glide_energy>
-34.3651723861694

> <r_i_glide_einternal>
7.31317138671875

> <r_i_glide_emodel>
-38.6233161363294

> <r_glide_XP_HBond>
-2.4

> <i_i_glide_confnum>
1

> <i_i_glide_posenum>
44

> <r_i_glide_eff_state_penalty>
0.00760364

> <i_glide_XP_PoseRank>
1

> <s_epik_Chemistry_Notes>
This compound contains an acetal/aminal-like group ( X-CH(R)-Y where X, Y are N, S, or O) that may be acid/base labile, releasing an aldehyde.

> <Potency>
50.0

> <r_lp_tautomer_probability>


> <MW>


> <cLogP>


> <TPSA>


> <Rotatable Bonds>


> <Fraction sp3>


> <HBA>


> <HBD>


> <Structure ID>


> <Submission Fragments>


$$$$
ligprep_COVID_compounds-withfrags-smallmolecules-forvalidation.maegz:1
                    3D
 Structure written by MMmdl.
 43 45  0  0  1  0            999 V2000
    5.5540    3.6547   24.3063 C   0  0  0  0  0  0
    6.8276    2.8308   24.0695 C   0  0  0  0  0  0
    7.9098    3.6192   23.3235 C   0  0  0  0  0  0
    6.5222    1.6026   23.3598 N   0  0  0  0  0  0
    6.9846    0.3068   23.5079 C   0  0  0  0  0  0
    7.8199   -0.0500   24.4859 N   0  0  0  0  0  0
    7.9188   -1.4095   24.3064 C   0  0  0  0  0  0
    8.6315   -2.3810   25.0412 C   0  0  0  0  0  0
    8.6281   -3.7340   24.6398 C   0  0  0  0  0  0
    7.8900   -4.1265   23.4997 C   0  0  0  0  0  0
    7.1585   -3.1719   22.7717 C   0  0  0  0  0  0
    7.1691   -1.8256   23.1738 C   0  0  0  0  0  0
    6.5785   -0.6777   22.6614 N   0  0  0  0  0  0
    5.6522   -0.6791   21.4620 C   0  0  2  0  0  0
    6.4067   -1.0958   20.1865 C   0  0  1  0  0  0
    5.5749   -1.7629   19.2637 O   0  0  0  0  0  0
    6.8792    0.2377   19.6608 C   0  0  1  0  0  0
    7.1766    0.2355   18.2781 O   0  0  0  0  0  0
    5.7655    1.2138   20.0921 C   0  0  1  0  0  0
    4.6596    1.4631   19.0359 C   0  0  0  0  0  0
    5.1748    1.8476   17.7710 O   0  0  0  0  0  0
    5.1474    0.6037   21.2268 O   0  0  0  0  0  0
    7.8483   -5.7640   22.9718 Cl  0  0  0  0  0  0
    9.5375   -4.8862   25.5528 Cl  0  0  0  0  0  0
    5.7754    4.5776   24.8429 H   0  0  0  0  0  0
    4.8282    3.0969   24.8955 H   0  0  0  0  0  0
    5.0679    3.9253   23.3710 H   0  0  0  0  0  0
    7.2290    2.5545   25.0438 H   0  0  0  0  0  0
    8.1526    4.5462   23.8417 H   0  0  0  0  0  0
    7.5833    3.8707   22.3155 H   0  0  0  0  0  0
    8.8290    3.0398   23.2379 H   0  0  0  0  0  0
    5.9040    1.7234   22.5661 H   0  0  0  0  0  0
    9.1723   -2.0790   25.9224 H   0  0  0  0  0  0
    6.5883   -3.4601   21.9059 H   0  0  0  0  0  0
    4.8682   -1.3632   21.7709 H   0  0  0  0  0  0
    7.2360   -1.7613   20.4143 H   0  0  0  0  0  0
    5.2606   -1.1407   18.6196 H   0  0  0  0  0  0
    7.7958    0.4895   20.1710 H   0  0  0  0  0  0
    6.5342    0.8306   17.8904 H   0  0  0  0  0  0
    6.1822    2.1567   20.4395 H   0  0  0  0  0  0
    4.0596    0.5684   18.8944 H   0  0  0  0  0  0
    3.9779    2.2348   19.3922 H   0  0  0  0  0  0
    4.4445    2.1521   17.2433 H   0  0  0  0  0  0
  1  2  1  0  0  0
  1 25  1  0  0  0
  1 26  1  0  0  0
  1 27  1  0  0  0
  2  3  1  0  0  0
  2  4  1  0  0  0
  2 28  1  0  0  0
  3 29  1  0  0  0
  3 30  1  0  0  0
  3 31  1  0  0  0
  4  5  1  0  0  0
  4 32  1  0  0  0
  5  6  2  0  0  0
  5 13  1  0  0  0
  6  7  1  0  0  0
  7  8  2  0  0  0
  7 12  1  0  0  0
  8  9  1  0  0  0
  8 33  1  0  0  0
  9 10  2  0  0  0
  9 24  1  0  0  0
 10 11  1  0  0  0
 10 23  1  0  0  0
 11 12  2  0  0  0
 11 34  1  0  0  0
 12 13  1  0  0  0
 13 14  1  0  0  0
 14 15  1  0  0  0
 14 22  1  0  0  0
 14 35  1  0  0  0
 15 16  1  0  0  0
 15 17  1  0  0  0
 15 36  1  0  0  0
 16 37  1  0  0  0
 17 18  1  0  0  0
 17 19  1  0  0  0
 17 38  1  0  0  0
 18 39  1  0  0  0
 19 20  1  0  0  0
 19 22  1  0  0  0
 19 40  1  0  0  0
 20 21  1  0  0  0
 20 41  1  0  0  0
 20 42  1  0  0  0
 21 43  1  0  0  0
M  END
> <s_m_entry_id>
227

> <s_m_entry_name>
Compounds-withfrags-for-validation-docking.1916

> <s_m_Source_Path>
/home/rodolpho/data/melina/maestro/glide-dock_XP_5RGK_M-PRO_VALIDATION

> <s_m_Source_File>
glide-dock_XP_5RGK_M-PRO_VALIDATION_pv.maegz

> <i_m_Source_File_Index>
227

> <CID>
Maribavir

> <pIC50>
4.30103

> <Source>
https://doi.org/10.1101/2020.03.23.004580

> <smiles>
C(C(C([H])([H])[H])(N(C1=NC2=C(C(=C(C([H])=C2N1C1(C(O[H])([H])C(O[H])([H])C(C(O[H])([H])[H])([H])O1)[H])Cl)Cl)[H])[H])[H])([H])([H])[H]

> <Outcome>
Inactive

> <StandardizerResult>
Clear Stereo (ID: ClearStereo)
Wedge Clean (ID: WedgeClean)
Mesomerize (ID: Mesomerize)
Tautomerize (ID: Tautomerize)
Aromatize (ID: Aromatize)
Add Explicit Hydrogens (ID: AddExplicitH)
Neutralize (ID: Neutralize)
Clean 2D (ID: Clean2D)

> <chiral flag>
0

> <version>
0

> <i_lp_mmshare_version>
41011

> <i_f3d_flags>
0

> <s_epik_input>
W2NIXTFjKENsKWMoQ2wpW2NIXWMoYzEyKW4oYyhuMilbTkhdW0NIXShbQ0gzXSlbQ0gzXSlbQ0BASF0zW0NAQEhdKFtPSF0pW0NAQEhdKFtPSF0pW0NASF0oTzMpW0NIMl1bT0hd

> <s_epik_cmdline>
J2VwaWtfcHl0aG9uJywgJy1waHQnLCAnMC41JywgJy1waCcsICc3LjQnLCAnLXRuJywgJzgnLCAnLW1hJywgJzIwMCcsICctaW1hZScsICc8aW5maWxlLm1hZT4nLCAnLW9tYWUnLCAnPG91dGZpbGUubWFlPic=

> <r_epik_Ionization_Penalty>
0.01

> <r_epik_Ionization_Penalty_Charging>
0.0

> <r_epik_Ionization_Penalty_Neutral>
0.01

> <r_epik_State_Penalty>
0.0076

> <r_epik_Charging_Adjusted_Penalty>
0.00760364

> <i_epik_Tot_Q>
0

> <i_epik_Tot_abs_Q>
0

> <s_lp_Force_Field>
OPLS3

> <r_lp_Energy>
14.1214

> <b_lp_Chiralities_Consistent>
1

> <s_lp_Variant>
ligprep_COVID_compounds-withfrags-smallmolecules-forvalidation.maegz:1-4

> <i_glide_original_lignum>
4

> <s_i_glide_gridfile>
glide-grid_5RGK_M-PRO_COVID

> <i_i_glide_lignum>
4

> <r_i_docking_score>
-5.38220521208389

> <r_i_glide_ligand_efficiency>
-0.224258550503496

> <r_i_glide_ligand_efficiency_sa>
-0.646873595517591

> <r_i_glide_ligand_efficiency_ln>
-1.28820868055586

> <r_glide_XP_GScore>
-5.38980885208389

> <r_i_glide_gscore>
-5.38980885208389

> <r_i_glide_evdw>
-29.3975410461426

> <r_i_glide_ecoul>
-8.81882667541504

> <r_i_glide_energy>
-38.2163677215576

> <r_i_glide_einternal>
5.71064901351929

> <r_i_glide_emodel>
-45.5647944464733

> <r_glide_XP_HBond>
-1.88314228360141

> <i_i_glide_confnum>
1

> <i_i_glide_posenum>
15

> <r_i_glide_eff_state_penalty>
0.00760364

> <i_glide_XP_PoseRank>
1

> <s_epik_Chemistry_Notes>
This compound contains an acetal/aminal-like group ( X-CH(R)-Y where X, Y are N, S, or O) that may be acid/base labile, releasing an aldehyde.

> <Potency>
50.0

> <r_lp_tautomer_probability>


> <MW>


> <cLogP>


> <TPSA>


> <Rotatable Bonds>


> <Fraction sp3>


> <HBA>


> <HBD>


> <Structure ID>


> <Submission Fragments>


$$$$
ligprep_COVID_compounds-withfrags-smallmolecules-forvalidation.maegz:101
                    3D
 Structure written by MMmdl.
 50 53  0  0  1  0            999 V2000
   10.7998    6.4004   25.1312 C   0  0  0  0  0  0
   10.4372    5.6824   23.8191 C   0  0  0  0  0  0
    9.3022    6.4119   23.0817 C   0  0  0  0  0  0
   11.7038    5.4359   22.9430 C   0  0  0  0  0  0
   11.8689    3.9592   23.0444 C   0  0  0  0  0  0
   12.9220    3.1627   22.5704 C   0  0  0  0  0  0
   12.8987    1.7867   22.8906 C   0  0  0  0  0  0
   11.8418    1.2455   23.6593 C   0  0  0  0  0  0
   10.7725    2.0565   24.0938 C   0  0  0  0  0  0
    9.7702    1.4970   24.8492 O   0  0  0  0  0  0
    8.4400    1.7434   24.3970 C   0  0  0  0  0  0
    7.8291    0.4202   23.9108 C   0  0  0  0  0  0
    7.0250    0.6363   22.7166 N   0  0  0  0  0  0
    5.7264    0.3425   22.5551 C   0  0  0  0  0  0
    5.0456   -0.1619   23.4479 O   0  0  0  0  0  0
    5.2441    0.7139   21.2254 C   0  0  0  0  0  0
    5.9758    0.4107   20.1234 C   0  0  0  0  0  0
    5.5604    0.8015   18.7777 C   0  0  0  0  0  0
    6.2428    0.6149   17.7708 O   0  0  0  0  0  0
    4.3750    1.4366   18.7060 N   0  0  0  0  0  0
    3.5747    1.8363   19.8135 C   0  0  0  0  0  0
    2.4252    2.6357   19.6053 C   0  0  0  0  0  0
    1.6300    3.0233   20.6952 C   0  0  0  0  0  0
    0.5103    3.7588   20.4932 F   0  0  0  0  0  0
    1.9957    2.6379   21.9975 C   0  0  0  0  0  0
    3.1614    1.8766   22.2113 C   0  0  0  0  0  0
    3.9664    1.4640   21.1193 C   0  0  0  0  0  0
   10.8171    3.4293   23.7687 C   0  0  0  0  0  0
    9.9285    4.3857   24.1714 O   0  0  0  0  0  0
   11.1402    7.4225   24.9644 H   0  0  0  0  0  0
   11.6006    5.8785   25.6535 H   0  0  0  0  0  0
    9.9413    6.4428   25.8023 H   0  0  0  0  0  0
    9.5749    7.4305   22.8160 H   0  0  0  0  0  0
    8.4107    6.4691   23.7066 H   0  0  0  0  0  0
    9.0180    5.8852   22.1708 H   0  0  0  0  0  0
   11.5749    5.7198   21.9009 H   0  0  0  0  0  0
   12.5874    5.9480   23.3269 H   0  0  0  0  0  0
   13.7360    3.5857   22.0010 H   0  0  0  0  0  0
   13.7017    1.1482   22.5538 H   0  0  0  0  0  0
   11.8427    0.1987   23.9095 H   0  0  0  0  0  0
    7.8511    2.1534   25.2173 H   0  0  0  0  0  0
    8.3975    2.4811   23.5930 H   0  0  0  0  0  0
    8.6220   -0.2712   23.6315 H   0  0  0  0  0  0
    7.2702   -0.0633   24.7135 H   0  0  0  0  0  0
    7.4945    1.0832   21.9399 H   0  0  0  0  0  0
    6.9062   -0.1341   20.2151 H   0  0  0  0  0  0
    4.0595    1.7339   17.7911 H   0  0  0  0  0  0
    2.1544    2.9490   18.6064 H   0  0  0  0  0  0
    1.3880    2.9391   22.8369 H   0  0  0  0  0  0
    3.4212    1.6371   23.2296 H   0  0  0  0  0  0
  1  2  1  0  0  0
  1 30  1  0  0  0
  1 31  1  0  0  0
  1 32  1  0  0  0
  2  3  1  0  0  0
  2  4  1  0  0  0
  2 29  1  0  0  0
  3 33  1  0  0  0
  3 34  1  0  0  0
  3 35  1  0  0  0
  4  5  1  0  0  0
  4 36  1  0  0  0
  4 37  1  0  0  0
  5  6  2  0  0  0
  5 28  1  0  0  0
  6  7  1  0  0  0
  6 38  1  0  0  0
  7  8  2  0  0  0
  7 39  1  0  0  0
  8  9  1  0  0  0
  8 40  1  0  0  0
  9 10  1  0  0  0
  9 28  2  0  0  0
 10 11  1  0  0  0
 11 12  1  0  0  0
 11 41  1  0  0  0
 11 42  1  0  0  0
 12 13  1  0  0  0
 12 43  1  0  0  0
 12 44  1  0  0  0
 13 14  1  0  0  0
 13 45  1  0  0  0
 14 15  2  0  0  0
 14 16  1  0  0  0
 16 17  2  0  0  0
 16 27  1  0  0  0
 17 18  1  0  0  0
 17 46  1  0  0  0
 18 19  2  0  0  0
 18 20  1  0  0  0
 20 21  1  0  0  0
 20 47  1  0  0  0
 21 22  2  0  0  0
 21 27  1  0  0  0
 22 23  1  0  0  0
 22 48  1  0  0  0
 23 24  1  0  0  0
 23 25  2  0  0  0
 25 26  1  0  0  0
 25 49  1  0  0  0
 26 27  2  0  0  0
 26 50  1  0  0  0
 28 29  1  0  0  0
M  END
> <s_m_entry_id>
228

> <s_m_entry_name>
Compounds-withfrags-for-validation-docking.1816

> <s_m_Source_Path>
/home/rodolpho/data/melina/maestro/glide-dock_XP_5RGK_M-PRO_VALIDATION

> <s_m_Source_File>
glide-dock_XP_5RGK_M-PRO_VALIDATION_pv.maegz

> <i_m_Source_File_Index>
228

> <CID>
MAT-POS-590ac91e-46

> <Potency>
99.5

> <pIC50>
4.00218

> <Source>
Postera

> <smiles>
CC1(C)Cc2cccc(OCCNC(=O)c3cc(=O)[nH]c4cc(F)ccc34)c2O1

> <Outcome>
Inactive

> <StandardizerResult>
Clear Stereo (ID: ClearStereo)
Wedge Clean (ID: WedgeClean)
Mesomerize (ID: Mesomerize)
Tautomerize (ID: Tautomerize)
Aromatize (ID: Aromatize)
Add Explicit Hydrogens (ID: AddExplicitH)
Neutralize (ID: Neutralize)
Clean 2D (ID: Clean2D)

> <chiral flag>
0

> <version>
0

> <i_lp_mmshare_version>
41011

> <i_f3d_flags>
0

> <s_epik_input>
W0NIM11DKFtDSDNdKShbQ0gyXTEpT2MoYzEyKWMoW2NIXVtjSF1bY0hdMilPW0NIMl1bQ0gyXVtOSF1DKD1PKWMoW2NIXWMoPU8pW25IXTMpYyhjMzQpW2NIXVtjSF1jKEYpW2NIXTQ=

> <s_epik_cmdline>
J2VwaWtfcHl0aG9uJywgJy1waHQnLCAnMC41JywgJy1waCcsICc3LjQnLCAnLXRuJywgJzgnLCAnLW1hJywgJzIwMCcsICctaW1hZScsICc8aW5maWxlLm1hZT4nLCAnLW9tYWUnLCAnPG91dGZpbGUubWFlPic=

> <r_lp_tautomer_probability>
1.0

> <r_epik_Ionization_Penalty>
0.0157

> <r_epik_Ionization_Penalty_Charging>
0.0157

> <r_epik_Ionization_Penalty_Neutral>
0.0

> <r_epik_State_Penalty>
0.0

> <r_epik_Charging_Adjusted_Penalty>
0.0157049

> <i_epik_Tot_Q>
0

> <i_epik_Tot_abs_Q>
0

> <s_lp_Force_Field>
OPLS3

> <r_lp_Energy>
41.3727

> <b_lp_Chiralities_Consistent>
1

> <s_lp_Variant>
ligprep_COVID_compounds-withfrags-smallmolecules-forvalidation.maegz:101-1

> <i_glide_original_lignum>
290

> <s_i_glide_gridfile>
glide-grid_5RGK_M-PRO_COVID

> <i_i_glide_lignum>
290

> <r_i_docking_score>
-5.3794005056354

> <r_i_glide_ligand_efficiency>
-0.185496569159841

> <r_i_glide_ligand_efficiency_sa>
-0.5699042298971

> <r_i_glide_ligand_efficiency_ln>
-1.23174630596344

> <r_glide_XP_GScore>
-5.3794005056354

> <r_i_glide_gscore>
-5.3794005056354

> <r_i_glide_evdw>
-41.526050567627

> <r_i_glide_ecoul>
-8.55592250823975

> <r_i_glide_energy>
-50.0819730758667

> <r_i_glide_einternal>
5.66096925735474

> <r_i_glide_emodel>
-66.8987793611863

> <r_glide_XP_HBond>
-1.46015056972457

> <i_i_glide_confnum>
3

> <i_i_glide_posenum>
1

> <r_i_glide_eff_state_penalty>
0.0

> <i_glide_XP_PoseRank>
1

> <MW>
396.15

> <cLogP>
3.19

> <TPSA>
80.42

> <Rotatable Bonds>
5

> <Fraction sp3>
0.27

> <HBA>
4

> <HBD>
2

> <Submission Fragments>
x0072

> <s_epik_Chemistry_Notes>


> <Structure ID>


$$$$
ligprep_COVID_compounds-withfrags-smallmolecules-forvalidation.maegz:6
                    3D
 Structure written by MMmdl.
 56 59  0  0  1  0            999 V2000
    5.1484   -6.4439   26.4071 C   0  0  0  0  0  0
    6.1652   -5.6563   27.2545 C   0  0  1  0  0  0
    7.2733   -5.0430   26.3840 C   0  0  0  0  0  0
    8.4688   -5.7634   26.1510 C   0  0  0  0  0  0
    9.5044   -5.2321   25.3685 C   0  0  0  0  0  0
    9.3628   -3.9602   24.8021 C   0  0  0  0  0  0
    8.1924   -3.2141   25.0259 C   0  0  0  0  0  0
    8.1380   -1.9718   24.4566 O   0  0  0  0  0  0
    7.1321   -3.7448   25.8220 C   0  0  0  0  0  0
    5.9007   -2.9379   26.0977 C   0  0  0  0  0  0
    5.6222   -1.9712   25.3826 O   0  0  0  0  0  0
    5.0415   -3.3203   27.2623 C   0  0  0  0  0  0
    5.4856   -4.5375   28.0834 C   0  0  1  0  0  0
    4.4611   -5.0012   29.1735 C   0  0  2  0  0  0
    3.0068   -4.4598   29.0529 C   0  0  2  0  0  0
    2.1269   -5.3349   28.0842 C   0  0  1  0  0  0
    1.3190   -6.3478   28.8020 N   0  0  0  0  0  0
    0.1989   -5.8194   29.5769 C   0  0  0  0  0  0
    2.0909   -7.3068   29.5826 C   0  0  0  0  0  0
    1.2341   -4.5593   27.0729 C   0  0  0  0  0  0
    0.9419   -5.3632   26.1543 O   0  5  0  0  0  0
    0.9075   -3.2171   27.2916 C   0  0  0  0  0  0
   -0.0266   -2.5488   26.3620 C   0  0  0  0  0  0
   -0.3458   -1.2957   26.6924 N   0  0  0  0  0  0
   -0.5115   -3.0271   25.3380 O   0  0  0  0  0  0
    1.5392   -2.5257   28.4406 C   0  0  0  0  0  0
    1.0148   -1.6124   29.0876 O   0  0  0  0  0  0
    2.9915   -2.9402   28.7537 C   0  0  2  0  0  0
    3.9577   -2.5800   27.6113 C   0  0  0  0  0  0
    3.5759   -1.4563   26.9699 O   0  0  0  0  0  0
    3.4051   -2.2348   29.9108 O   0  0  0  0  0  0
    4.9496   -4.6408   30.4548 O   0  0  0  0  0  0
    6.7013   -6.5635   28.2016 O   0  0  0  0  0  0
    4.5598   -5.7910   25.7613 H   0  0  0  0  0  0
    4.4696   -7.0202   27.0330 H   0  0  0  0  0  0
    5.6198   -7.1802   25.7716 H   0  0  0  0  0  0
    8.6217   -6.7454   26.5704 H   0  0  0  0  0  0
   10.4071   -5.8007   25.2027 H   0  0  0  0  0  0
   10.1625   -3.5545   24.1996 H   0  0  0  0  0  0
    7.2779   -1.5797   24.5594 H   0  0  0  0  0  0
    6.3444   -4.1637   28.6292 H   0  0  0  0  0  0
    4.4312   -6.0874   29.2019 H   0  0  0  0  0  0
    2.5590   -4.5574   30.0422 H   0  0  0  0  0  0
    2.8189   -5.9074   27.4792 H   0  0  0  0  0  0
   -0.4517   -5.1924   28.9649 H   0  0  0  0  0  0
    0.5330   -5.2302   30.4320 H   0  0  0  0  0  0
   -0.4126   -6.6394   29.9557 H   0  0  0  0  0  0
    2.8621   -7.7711   28.9661 H   0  0  0  0  0  0
    1.4446   -8.1051   29.9467 H   0  0  0  0  0  0
    2.5651   -6.8405   30.4466 H   0  0  0  0  0  0
    0.0371   -0.9147   27.5487 H   0  0  0  0  0  0
   -0.9730   -0.7646   26.1096 H   0  0  0  0  0  0
    4.2028   -1.3062   26.2713 H   0  0  0  0  0  0
    2.6728   -1.6784   30.1504 H   0  0  0  0  0  0
    4.8389   -3.7040   30.5654 H   0  0  0  0  0  0
    7.0739   -7.3155   27.7380 H   0  0  0  0  0  0
  1  2  1  0  0  0
  1 34  1  0  0  0
  1 35  1  0  0  0
  1 36  1  0  0  0
  2  3  1  0  0  0
  2 33  1  0  0  0
  2 13  1  0  0  0
  3  4  2  0  0  0
  3  9  1  0  0  0
  4  5  1  0  0  0
  4 37  1  0  0  0
  5  6  2  0  0  0
  5 38  1  0  0  0
  6  7  1  0  0  0
  6 39  1  0  0  0
  7  8  1  0  0  0
  7  9  2  0  0  0
  8 40  1  0  0  0
  9 10  1  0  0  0
 10 11  2  0  0  0
 10 12  1  0  0  0
 12 13  1  0  0  0
 12 29  2  0  0  0
 13 14  1  0  0  0
 13 41  1  0  0  0
 14 15  1  0  0  0
 14 32  1  0  0  0
 14 42  1  0  0  0
 15 16  1  0  0  0
 15 28  1  0  0  0
 15 43  1  0  0  0
 16 17  1  0  0  0
 16 20  1  0  0  0
 16 44  1  0  0  0
 17 18  1  0  0  0
 17 19  1  0  0  0
 18 45  1  0  0  0
 18 46  1  0  0  0
 18 47  1  0  0  0
 19 48  1  0  0  0
 19 49  1  0  0  0
 19 50  1  0  0  0
 20 21  1  0  0  0
 20 22  2  0  0  0
 22 23  1  0  0  0
 22 26  1  0  0  0
 23 24  1  0  0  0
 23 25  2  0  0  0
 24 51  1  0  0  0
 24 52  1  0  0  0
 26 27  2  0  0  0
 26 28  1  0  0  0
 28 29  1  0  0  0
 28 31  1  0  0  0
 29 30  1  0  0  0
 30 53  1  0  0  0
 31 54  1  0  0  0
 32 55  1  0  0  0
 33 56  1  0  0  0
M  CHG  1  21  -1
M  END
> <s_m_entry_id>
241

> <s_m_entry_name>
Compounds-withfrags-for-validation-docking.1911

> <s_m_Source_Path>
/home/rodolpho/data/melina/maestro/glide-dock_XP_5RGK_M-PRO_VALIDATION

> <s_m_Source_File>
glide-dock_XP_5RGK_M-PRO_VALIDATION_pv.maegz

> <i_m_Source_File_Index>
241

> <CID>
Oxitetracyclin

> <Potency>
15.15

> <pIC50>
4.81959

> <Source>
https://doi.org/10.1101/2020.03.23.004580

> <smiles>
C(C1(C2=C(C(=C(C(O[H])=C2C(O[H])=C2C1(C(C1(C(N(C([H])([H])[H])C([H])([H])[H])([H])C(=O)C(=C(N([H])[H])O[H])C(=O)C1(C2=O)O[H])[H])(O[H])[H])[H])[H])[H])[H])O[H])([H])([H])[H]

> <Outcome>
Inactive

> <StandardizerResult>
Clear Stereo (ID: ClearStereo)
Wedge Clean (ID: WedgeClean)
Mesomerize (ID: Mesomerize)
Tautomerize (ID: Tautomerize)
Aromatize (ID: Aromatize)
Add Explicit Hydrogens (ID: AddExplicitH)
Neutralize (ID: Neutralize)
Clean 2D (ID: Clean2D)

> <chiral flag>
0

> <version>
0

> <i_lp_mmshare_version>
41011

> <i_f3d_flags>
0

> <s_epik_input>
W09IXWMxW2NIXVtjSF1bY0hdYyhbQ0BAXTIoW0NIM10pW09IXSljMUMoPU8pQyg9QzNbT0hdKVtDQEhdMltDQEBIXShbT0hdKVtDQEBIXShbQ0BAXTM0W09IXSlbQ0BASF0oTihbQ0gzXSlbQ0gzXSlDKD1PKVtDQEhdKEM0PU8pQyg9TylbTkgyXQ==

> <s_epik_cmdline>
J2VwaWtfcHl0aG9uJywgJy1waHQnLCAnMC41JywgJy1waCcsICc3LjQnLCAnLXRuJywgJzgnLCAnLW1hJywgJzIwMCcsICctaW1hZScsICc8aW5maWxlLm1hZT4nLCAnLW9tYWUnLCAnPG91dGZpbGUubWFlPic=

> <r_epik_Ionization_Penalty>
0.3646

> <r_epik_Ionization_Penalty_Charging>
0.0013

> <r_epik_Ionization_Penalty_Neutral>
0.3633

> <r_epik_State_Penalty>
0.3215

> <r_epik_Charging_Adjusted_Penalty>
0.322822

> <i_epik_Tot_Q>
-1

> <i_epik_Tot_abs_Q>
1

> <s_lp_Force_Field>
OPLS3

> <r_lp_Energy>
58.5927

> <b_lp_Chiralities_Consistent>
1

> <s_lp_Variant>
ligprep_COVID_compounds-withfrags-smallmolecules-forvalidation.maegz:6-12

> <i_glide_original_lignum>
64

> <s_i_glide_gridfile>
glide-grid_5RGK_M-PRO_COVID

> <i_i_glide_lignum>
64

> <r_i_docking_score>
-5.3522780500157

> <r_i_glide_ligand_efficiency>
-0.16219024393987

> <r_i_glide_ligand_efficiency_sa>
-0.520230774821199

> <r_i_glide_ligand_efficiency_ln>
-1.1903189257109

> <r_glide_XP_GScore>
-5.6737750500157

> <r_i_glide_gscore>
-5.6737750500157

> <r_i_glide_evdw>
-21.421012878418

> <r_i_glide_ecoul>
-13.7797355651855

> <r_i_glide_energy>
-35.2007484436035

> <r_i_glide_einternal>
7.7270622253418

> <r_i_glide_emodel>
-32.3404811483437

> <r_glide_XP_HBond>
-2.81285226170631

> <i_i_glide_confnum>
1

> <i_i_glide_posenum>
2

> <r_i_glide_eff_state_penalty>
0.321497

> <i_glide_XP_PoseRank>
1

> <r_lp_tautomer_probability>


> <s_epik_Chemistry_Notes>


> <MW>


> <cLogP>


> <TPSA>


> <Rotatable Bonds>


> <Fraction sp3>


> <HBA>


> <HBD>


> <Structure ID>


> <Submission Fragments>


$$$$
ligprep_COVID_compounds-withfrags-smallmolecules-forvalidation.maegz:4
                    3D
 Structure written by MMmdl.
 93 97  0  0  1  0            999 V2000
   -1.2139    0.5476   22.7442 C   0  0  0  0  0  0
   -0.2403    1.1621   23.7732 C   0  0  0  0  0  0
   -0.9972    2.2476   24.5773 C   0  0  0  0  0  0
    0.2317    0.0297   24.7203 C   0  0  0  0  0  0
    0.8848    1.7461   23.0256 N   0  0  0  0  0  0
    2.0691    2.1668   23.5127 C   0  0  0  0  0  0
    2.3814    2.1276   24.7036 O   0  0  0  0  0  0
    3.0632    2.7145   22.4512 C   0  0  2  0  0  0
    3.9353    1.5219   21.9853 C   0  0  0  0  0  0
    4.9830    1.0802   22.9131 N   0  0  0  0  0  0
    5.6981   -0.0970   22.4132 C   0  0  0  0  0  0
    5.6843   -0.1644   20.8915 C   0  0  0  0  0  0
    5.1538    0.8843   20.1306 C   0  0  0  0  0  0
    5.1741    0.8045   18.7369 C   0  0  0  0  0  0
    5.7257   -0.3322   18.1432 C   0  0  0  0  0  0
    6.2422   -1.3629   18.8606 N   0  0  0  0  0  0
    6.2142   -1.2686   20.2151 C   0  0  0  0  0  0
    5.9045    2.1881   23.1755 C   0  0  0  0  0  0
    5.1898    3.4005   23.8158 C   0  0  0  0  0  0
    3.9634    3.8320   22.9714 N   0  3  2  0  0  0
    3.2490    5.0271   23.6698 C   0  0  0  0  0  0
    3.4002    6.3558   22.8932 C   0  0  1  0  0  0
    2.6537    6.3357   21.5358 C   0  0  0  0  0  0
    3.0742    7.4367   20.5167 C   0  0  2  0  0  0
    2.9157    8.8725   21.0878 C   0  0  0  0  0  0
    3.3779    9.9686   20.1347 C   0  0  0  0  0  0
    4.3525   10.8853   20.5397 C   0  0  0  0  0  0
    4.7781   11.8801   19.6633 C   0  0  0  0  0  0
    4.2271   11.9562   18.3859 C   0  0  0  0  0  0
    3.2538   11.0471   17.9766 C   0  0  0  0  0  0
    2.8277   10.0523   18.8527 C   0  0  0  0  0  0
    2.3105    7.2840   19.1832 C   0  0  0  0  0  0
    1.3124    7.9691   18.9528 O   0  0  0  0  0  0
    2.7758    6.3494   18.3355 N   0  0  0  0  0  0
    2.1867    6.0029   17.0387 C   0  0  1  0  0  0
    2.3563    7.0559   15.9555 C   0  0  0  0  0  0
    2.3973    8.4510   16.0320 C   0  0  0  0  0  0
    2.5760    9.2036   14.8700 C   0  0  0  0  0  0
    2.7188    8.5663   13.6360 C   0  0  0  0  0  0
    2.6887    7.1729   13.5585 C   0  0  0  0  0  0
    2.5153    6.4196   14.7206 C   0  0  0  0  0  0
    2.4678    4.9162   14.9084 C   0  0  0  0  0  0
    2.8077    4.7450   16.3962 C   0  0  1  0  0  0
    4.2140    4.6396   16.5708 O   0  0  0  0  0  0
    2.9234    7.4300   23.6836 O   0  0  0  0  0  0
   -2.0698    0.0781   23.2314 H   0  0  0  0  0  0
   -0.7283   -0.2181   22.1368 H   0  0  0  0  0  0
   -1.6091    1.2997   22.0623 H   0  0  0  0  0  0
   -1.3355    3.0603   23.9333 H   0  0  0  0  0  0
   -0.3743    2.6895   25.3553 H   0  0  0  0  0  0
   -1.8785    1.8362   25.0712 H   0  0  0  0  0  0
   -0.6133   -0.4685   25.1976 H   0  0  0  0  0  0
    0.8699    0.4008   25.5223 H   0  0  0  0  0  0
    0.7972   -0.7330   24.1828 H   0  0  0  0  0  0
    0.7335    1.8346   22.0313 H   0  0  0  0  0  0
    2.5155    3.1270   21.6023 H   0  0  0  0  0  0
    3.2705    0.6941   21.7307 H   0  0  0  0  0  0
    4.4023    1.8252   21.0460 H   0  0  0  0  0  0
    6.7219   -0.1186   22.7921 H   0  0  0  0  0  0
    5.2147   -1.0030   22.7831 H   0  0  0  0  0  0
    4.7385    1.7565   20.6146 H   0  0  0  0  0  0
    4.7732    1.6050   18.1328 H   0  0  0  0  0  0
    5.7592   -0.4293   17.0680 H   0  0  0  0  0  0
    6.6375   -2.1013   20.7582 H   0  0  0  0  0  0
    6.6931    1.8540   23.8514 H   0  0  0  0  0  0
    6.3999    2.4928   22.2513 H   0  0  0  0  0  0
    4.8288    3.1689   24.8192 H   0  0  0  0  0  0
    5.8542    4.2634   23.8761 H   0  0  0  0  0  0
    2.2048    4.7393   23.7967 H   0  0  0  0  0  0
    3.7074    5.0970   24.6578 H   0  0  0  0  0  0
    4.4563    6.5280   22.6964 H   0  0  0  0  0  0
    2.7859    5.3564   21.0712 H   0  0  0  0  0  0
    1.5840    6.4137   21.7350 H   0  0  0  0  0  0
    4.1372    7.3008   20.3059 H   0  0  0  0  0  0
    1.8691    9.0689   21.3316 H   0  0  0  0  0  0
    3.4474    8.9672   22.0370 H   0  0  0  0  0  0
    4.7823   10.8265   21.5292 H   0  0  0  0  0  0
    5.5317   12.5893   19.9724 H   0  0  0  0  0  0
    4.5575   12.7279   17.7063 H   0  0  0  0  0  0
    2.8322   11.1132   16.9844 H   0  0  0  0  0  0
    2.0741    9.3465   18.5344 H   0  0  0  0  0  0
    3.6402    5.8807   18.5661 H   0  0  0  0  0  0
    1.1160    5.8166   17.1491 H   0  0  0  0  0  0
    2.2878    8.9599   16.9782 H   0  0  0  0  0  0
    2.6041   10.2819   14.9260 H   0  0  0  0  0  0
    2.8570    9.1529   12.7397 H   0  0  0  0  0  0
    2.8077    6.6918   12.5988 H   0  0  0  0  0  0
    1.4668    4.5376   14.6963 H   0  0  0  0  0  0
    3.1599    4.3742   14.2618 H   0  0  0  0  0  0
    2.3459    3.8417   16.7970 H   0  0  0  0  0  0
    4.4013    4.6129   17.5124 H   0  0  0  0  0  0
    1.9845    7.3027   23.8413 H   0  0  0  0  0  0
    4.3746    4.2601   22.1537 H   0  0  0  0  0  0
  1  2  1  0  0  0
  1 46  1  0  0  0
  1 47  1  0  0  0
  1 48  1  0  0  0
  2  3  1  0  0  0
  2  4  1  0  0  0
  2  5  1  0  0  0
  3 49  1  0  0  0
  3 50  1  0  0  0
  3 51  1  0  0  0
  4 52  1  0  0  0
  4 53  1  0  0  0
  4 54  1  0  0  0
  5  6  1  0  0  0
  5 55  1  0  0  0
  6  7  2  0  0  0
  6  8  1  0  0  0
  8  9  1  0  0  0
  8 20  1  0  0  0
  8 56  1  0  0  0
  9 10  1  0  0  0
  9 57  1  0  0  0
  9 58  1  0  0  0
 10 11  1  0  0  0
 10 18  1  0  0  0
 11 12  1  0  0  0
 11 59  1  0  0  0
 11 60  1  0  0  0
 12 13  2  0  0  0
 12 17  1  0  0  0
 13 14  1  0  0  0
 13 61  1  0  0  0
 14 15  2  0  0  0
 14 62  1  0  0  0
 15 16  1  0  0  0
 15 63  1  0  0  0
 16 17  2  0  0  0
 17 64  1  0  0  0
 18 19  1  0  0  0
 18 65  1  0  0  0
 18 66  1  0  0  0
 19 20  1  0  0  0
 19 67  1  0  0  0
 19 68  1  0  0  0
 20 21  1  0  0  0
 20 93  1  0  0  0
 21 22  1  0  0  0
 21 69  1  0  0  0
 21 70  1  0  0  0
 22 23  1  0  0  0
 22 45  1  0  0  0
 22 71  1  0  0  0
 23 24  1  0  0  0
 23 72  1  0  0  0
 23 73  1  0  0  0
 24 25  1  0  0  0
 24 32  1  0  0  0
 24 74  1  0  0  0
 25 26  1  0  0  0
 25 75  1  0  0  0
 25 76  1  0  0  0
 26 27  2  0  0  0
 26 31  1  0  0  0
 27 28  1  0  0  0
 27 77  1  0  0  0
 28 29  2  0  0  0
 28 78  1  0  0  0
 29 30  1  0  0  0
 29 79  1  0  0  0
 30 31  2  0  0  0
 30 80  1  0  0  0
 31 81  1  0  0  0
 32 33  2  0  0  0
 32 34  1  0  0  0
 34 35  1  0  0  0
 34 82  1  0  0  0
 35 36  1  0  0  0
 35 43  1  0  0  0
 35 83  1  0  0  0
 36 37  2  0  0  0
 36 41  1  0  0  0
 37 38  1  0  0  0
 37 84  1  0  0  0
 38 39  2  0  0  0
 38 85  1  0  0  0
 39 40  1  0  0  0
 39 86  1  0  0  0
 40 41  2  0  0  0
 40 87  1  0  0  0
 41 42  1  0  0  0
 42 43  1  0  0  0
 42 88  1  0  0  0
 42 89  1  0  0  0
 43 44  1  0  0  0
 43 90  1  0  0  0
 44 91  1  0  0  0
 45 92  1  0  0  0
M  CHG  1  20   1
M  END
> <s_m_entry_id>
246

> <s_m_entry_name>
Compounds-withfrags-for-validation-docking.1913

> <s_m_Source_Path>
/home/rodolpho/data/melina/maestro/glide-dock_XP_5RGK_M-PRO_VALIDATION

> <s_m_Source_File>
glide-dock_XP_5RGK_M-PRO_VALIDATION_pv.maegz

> <i_m_Source_File_Index>
246

> <CID>
Indinavir

> <Potency>
43.13

> <pIC50>
4.36522

> <Source>
https://doi.org/10.1101/2020.03.23.004580

> <smiles>
C(C(C([H])([H])[H])(C([H])([H])[H])N(C(=O)C1(C([H])([H])N(C(C2=C([H])C([H])=C([H])N=C2[H])([H])[H])C([H])([H])C([H])([H])N1C(C(C(C(C(C1=C([H])C([H])=C([H])C([H])=C1[H])([H])[H])(C(=O)N(C1(C2=C(C(=C(C([H])=C2C([H])([H])C1(O[H])[H])[H])[H])[H])[H])[H])[H])([H])[H])(O[H])[H])([H])[H])[H])[H])([H])([H])[H]

> <Outcome>
Inactive

> <StandardizerResult>
Clear Stereo (ID: ClearStereo)
Wedge Clean (ID: WedgeClean)
Mesomerize (ID: Mesomerize)
Tautomerize (ID: Tautomerize)
Aromatize (ID: Aromatize)
Add Explicit Hydrogens (ID: AddExplicitH)
Neutralize (ID: Neutralize)
Clean 2D (ID: Clean2D)

> <chiral flag>
0

> <version>
0

> <i_lp_mmshare_version>
41011

> <i_f3d_flags>
0

> <s_epik_input>
W2NIXTFuW2NIXVtjSF1bY0hdYzFbQ0gyXU4oW0NIMl1bQ0BIXTJDKD1PKVtOSF1DKFtDSDNdKShbQ0gzXSlbQ0gzXSlbQ0gyXVtDSDJdTjJbQ0gyXVtDQEhdKFtPSF0pW0NIMl1bQ0BIXShbQ0gyXWMzW2NIXVtjSF1bY0hdW2NIXVtjSF0zKUMoPU8pW05IXVtDQEBIXTRbQ0BIXShbT0hdKVtDSDJdYyhjNDUpW2NIXVtjSF1bY0hdW2NIXTU=

> <s_epik_cmdline>
J2VwaWtfcHl0aG9uJywgJy1waHQnLCAnMC41JywgJy1waCcsICc3LjQnLCAnLXRuJywgJzgnLCAnLW1hJywgJzIwMCcsICctaW1hZScsICc8aW5maWxlLm1hZT4nLCAnLW9tYWUnLCAnPG91dGZpbGUubWFlPic=

> <r_epik_Ionization_Penalty>
0.3395

> <r_epik_Ionization_Penalty_Charging>
0.3352

> <r_epik_Ionization_Penalty_Neutral>
0.0044

> <r_epik_State_Penalty>
0.5191

> <r_epik_Charging_Adjusted_Penalty>
0.854238

> <i_epik_Tot_Q>
1

> <i_epik_Tot_abs_Q>
1

> <s_lp_Force_Field>
OPLS3

> <r_lp_Energy>
53.3876

> <b_lp_Chiralities_Consistent>
1

> <s_lp_Variant>
ligprep_COVID_compounds-withfrags-smallmolecules-forvalidation.maegz:4-11

> <i_glide_original_lignum>
30

> <s_i_glide_gridfile>
glide-grid_5RGK_M-PRO_COVID

> <i_i_glide_lignum>
30

> <r_i_docking_score>
-5.34086521522233

> <r_i_glide_ligand_efficiency>
-0.118685893671607

> <r_i_glide_ligand_efficiency_sa>
-0.422153060002295

> <r_i_glide_ligand_efficiency_ln>
-1.11113797288429

> <r_glide_XP_GScore>
-5.85993721522233

> <r_i_glide_gscore>
-5.85993721522233

> <r_i_glide_evdw>
-34.1537094116211

> <r_i_glide_ecoul>
-22.1576652526855

> <r_i_glide_energy>
-56.3113746643066

> <r_i_glide_einternal>
13.1948709487915

> <r_i_glide_emodel>
-79.3815106625565

> <r_glide_XP_HBond>
-2.24673360306461

> <i_i_glide_confnum>
3

> <i_i_glide_posenum>
60

> <r_i_glide_eff_state_penalty>
0.519072

> <i_glide_XP_PoseRank>
1

> <r_lp_tautomer_probability>


> <s_epik_Chemistry_Notes>


> <MW>


> <cLogP>


> <TPSA>


> <Rotatable Bonds>


> <Fraction sp3>


> <HBA>


> <HBD>


> <Structure ID>


> <Submission Fragments>


$$$$
ligprep_COVID_compounds-withfrags-smallmolecules-forvalidation.maegz:6
                    3D
 Structure written by MMmdl.
 56 59  0  0  1  0            999 V2000
    6.1262   -5.5221   28.2640 C   0  0  0  0  0  0
    5.9229   -5.3903   26.7381 C   0  0  2  0  0  0
    7.2298   -4.8746   26.1094 C   0  0  0  0  0  0
    8.3111   -5.7639   25.9186 C   0  0  0  0  0  0
    9.5211   -5.3403   25.3515 C   0  0  0  0  0  0
    9.6683   -4.0053   24.9569 C   0  0  0  0  0  0
    8.6216   -3.0872   25.1521 C   0  0  0  0  0  0
    8.8492   -1.7964   24.7590 O   0  0  0  0  0  0
    7.3909   -3.5082   25.7425 C   0  0  0  0  0  0
    6.2798   -2.5337   25.9920 C   0  0  0  0  0  0
    6.3659   -1.3637   25.6293 O   0  0  0  0  0  0
    5.0563   -3.0370   26.6649 C   0  0  0  0  0  0
    4.7295   -4.4836   26.3236 C   0  0  2  0  0  0
    3.3210   -4.9615   26.8025 C   0  0  1  0  0  0
    2.3629   -3.7928   27.1152 C   0  0  1  0  0  0
    0.8596   -4.1048   27.3380 C   0  0  1  0  0  0
    0.5903   -4.7410   28.6492 N   0  0  0  0  0  0
   -0.7038   -4.4098   29.2425 C   0  0  0  0  0  0
    0.6757   -6.1970   28.5801 C   0  0  0  0  0  0
    0.0978   -2.7815   27.0918 C   0  0  0  0  0  0
   -0.9069   -3.0558   26.3902 O   0  5  0  0  0  0
    0.6368   -1.5834   27.5874 C   0  0  0  0  0  0
   -0.1282   -0.3394   27.3435 C   0  0  0  0  0  0
    0.4391    0.7702   27.8169 N   0  0  0  0  0  0
   -1.1999   -0.2350   26.7487 O   0  0  0  0  0  0
    1.9257   -1.6136   28.3635 C   0  0  0  0  0  0
    2.2007   -0.7618   29.2159 O   0  0  0  0  0  0
    2.9603   -2.7523   28.0989 C   0  0  2  0  0  0
    4.2951   -2.2713   27.4873 C   0  0  0  0  0  0
    4.5741   -0.9868   27.7711 O   0  0  0  0  0  0
    3.2587   -3.3653   29.3433 O   0  0  0  0  0  0
    2.7554   -5.7639   25.7747 O   0  0  0  0  0  0
    5.5755   -6.6752   26.2834 O   0  0  0  0  0  0
    6.3581   -4.5638   28.7222 H   0  0  0  0  0  0
    6.9616   -6.1889   28.4882 H   0  0  0  0  0  0
    5.2590   -5.9323   28.7785 H   0  0  0  0  0  0
    8.2338   -6.8005   26.1994 H   0  0  0  0  0  0
   10.3307   -6.0415   25.2128 H   0  0  0  0  0  0
   10.5984   -3.6851   24.5107 H   0  0  0  0  0  0
    8.0762   -1.2564   24.8890 H   0  0  0  0  0  0
    4.6924   -4.4861   25.2299 H   0  0  0  0  0  0
    3.4256   -5.5736   27.6931 H   0  0  0  0  0  0
    2.3434   -3.2531   26.1707 H   0  0  0  0  0  0
    0.5489   -4.8159   26.5697 H   0  0  0  0  0  0
   -0.7812   -3.3428   29.4526 H   0  0  0  0  0  0
   -0.8332   -4.9240   30.1948 H   0  0  0  0  0  0
   -1.5248   -4.6967   28.5841 H   0  0  0  0  0  0
    1.6441   -6.5435   28.2305 H   0  0  0  0  0  0
   -0.0895   -6.6007   27.9122 H   0  0  0  0  0  0
    0.5223   -6.6360   29.5673 H   0  0  0  0  0  0
    1.2924    0.6707   28.3565 H   0  0  0  0  0  0
   -0.0132    1.6609   27.6894 H   0  0  0  0  0  0
    5.2843   -0.7060   27.2029 H   0  0  0  0  0  0
    3.9091   -4.0357   29.2115 H   0  0  0  0  0  0
    2.0804   -6.3067   26.1547 H   0  0  0  0  0  0
    6.2494   -7.2873   26.5698 H   0  0  0  0  0  0
  1  2  1  0  0  0
  1 34  1  0  0  0
  1 35  1  0  0  0
  1 36  1  0  0  0
  2  3  1  0  0  0
  2 33  1  0  0  0
  2 13  1  0  0  0
  3  4  2  0  0  0
  3  9  1  0  0  0
  4  5  1  0  0  0
  4 37  1  0  0  0
  5  6  2  0  0  0
  5 38  1  0  0  0
  6  7  1  0  0  0
  6 39  1  0  0  0
  7  8  1  0  0  0
  7  9  2  0  0  0
  8 40  1  0  0  0
  9 10  1  0  0  0
 10 11  2  0  0  0
 10 12  1  0  0  0
 12 13  1  0  0  0
 12 29  2  0  0  0
 13 14  1  0  0  0
 13 41  1  0  0  0
 14 15  1  0  0  0
 14 32  1  0  0  0
 14 42  1  0  0  0
 15 16  1  0  0  0
 15 28  1  0  0  0
 15 43  1  0  0  0
 16 17  1  0  0  0
 16 20  1  0  0  0
 16 44  1  0  0  0
 17 18  1  0  0  0
 17 19  1  0  0  0
 18 45  1  0  0  0
 18 46  1  0  0  0
 18 47  1  0  0  0
 19 48  1  0  0  0
 19 49  1  0  0  0
 19 50  1  0  0  0
 20 21  1  0  0  0
 20 22  2  0  0  0
 22 23  1  0  0  0
 22 26  1  0  0  0
 23 24  1  0  0  0
 23 25  2  0  0  0
 24 51  1  0  0  0
 24 52  1  0  0  0
 26 27  2  0  0  0
 26 28  1  0  0  0
 28 29  1  0  0  0
 28 31  1  0  0  0
 29 30  1  0  0  0
 30 53  1  0  0  0
 31 54  1  0  0  0
 32 55  1  0  0  0
 33 56  1  0  0  0
M  CHG  1  21  -1
M  END
> <s_m_entry_id>
255

> <s_m_entry_name>
Compounds-withfrags-for-validation-docking.1911

> <s_m_Source_Path>
/home/rodolpho/data/melina/maestro/glide-dock_XP_5RGK_M-PRO_VALIDATION

> <s_m_Source_File>
glide-dock_XP_5RGK_M-PRO_VALIDATION_pv.maegz

> <i_m_Source_File_Index>
255

> <CID>
Oxitetracyclin

> <Potency>
15.15

> <pIC50>
4.81959

> <Source>
https://doi.org/10.1101/2020.03.23.004580

> <smiles>
C(C1(C2=C(C(=C(C(O[H])=C2C(O[H])=C2C1(C(C1(C(N(C([H])([H])[H])C([H])([H])[H])([H])C(=O)C(=C(N([H])[H])O[H])C(=O)C1(C2=O)O[H])[H])(O[H])[H])[H])[H])[H])[H])O[H])([H])([H])[H]

> <Outcome>
Inactive

> <StandardizerResult>
Clear Stereo (ID: ClearStereo)
Wedge Clean (ID: WedgeClean)
Mesomerize (ID: Mesomerize)
Tautomerize (ID: Tautomerize)
Aromatize (ID: Aromatize)
Add Explicit Hydrogens (ID: AddExplicitH)
Neutralize (ID: Neutralize)
Clean 2D (ID: Clean2D)

> <chiral flag>
0

> <version>
0

> <i_lp_mmshare_version>
41011

> <i_f3d_flags>
0

> <s_epik_input>
W09IXWMxW2NIXVtjSF1bY0hdYyhbQ0BdMihbQ0gzXSlbT0hdKWMxQyg9TylDKD1DM1tPSF0pW0NAQEhdMltDQEhdKFtPSF0pW0NASF0oW0NAQF0zNFtPSF0pW0NAQEhdKE4oW0NIM10pW0NIM10pQyg9TylbQ0BIXShDND1PKUMoPU8pW05IMl0=

> <s_epik_cmdline>
J2VwaWtfcHl0aG9uJywgJy1waHQnLCAnMC41JywgJy1waCcsICc3LjQnLCAnLXRuJywgJzgnLCAnLW1hJywgJzIwMCcsICctaW1hZScsICc8aW5maWxlLm1hZT4nLCAnLW9tYWUnLCAnPG91dGZpbGUubWFlPic=

> <r_epik_Ionization_Penalty>
0.3646

> <r_epik_Ionization_Penalty_Charging>
0.0013

> <r_epik_Ionization_Penalty_Neutral>
0.3633

> <r_epik_State_Penalty>
0.3215

> <r_epik_Charging_Adjusted_Penalty>
0.322822

> <i_epik_Tot_Q>
-1

> <i_epik_Tot_abs_Q>
1

> <s_lp_Force_Field>
OPLS3

> <r_lp_Energy>
57.4839

> <b_lp_Chiralities_Consistent>
1

> <s_lp_Variant>
ligprep_COVID_compounds-withfrags-smallmolecules-forvalidation.maegz:6-5

> <i_glide_original_lignum>
57

> <s_i_glide_gridfile>
glide-grid_5RGK_M-PRO_COVID

> <i_i_glide_lignum>
57

> <r_i_docking_score>
-5.31626656606664

> <r_i_glide_ligand_efficiency>
-0.161098986850504

> <r_i_glide_ligand_efficiency_sa>
-0.516730530248288

> <r_i_glide_ligand_efficiency_ln>
-1.18231015813811

> <r_glide_XP_GScore>
-5.63776356606664

> <r_i_glide_gscore>
-5.63776356606664

> <r_i_glide_evdw>
-18.0977420806885

> <r_i_glide_ecoul>
-12.8397426605225

> <r_i_glide_energy>
-30.9374847412109

> <r_i_glide_einternal>
2.05240345001221

> <r_i_glide_emodel>
-31.0553226470947

> <r_glide_XP_HBond>
-1.96608644484009

> <i_i_glide_confnum>
1

> <i_i_glide_posenum>
59

> <r_i_glide_eff_state_penalty>
0.321497

> <i_glide_XP_PoseRank>
1

> <r_lp_tautomer_probability>


> <s_epik_Chemistry_Notes>


> <MW>


> <cLogP>


> <TPSA>


> <Rotatable Bonds>


> <Fraction sp3>


> <HBA>


> <HBD>


> <Structure ID>


> <Submission Fragments>


$$$$
ligprep_COVID_compounds-withfrags-smallmolecules-forvalidation.maegz:7
                    3D
 Structure written by MMmdl.
 46 46  0  0  1  0            999 V2000
    6.0540    0.5105   20.4991 C   0  0  0  0  0  0
    4.8075    0.4558   19.6146 C   0  0  0  0  0  0
    5.2222    0.5128   18.1362 C   0  0  0  0  0  0
    3.7371    1.5350   19.9396 C   0  0  0  0  0  0
    3.2065    1.6010   21.3996 C   0  0  2  0  0  0
    1.6998    1.9463   21.3708 C   0  0  0  0  0  0
    1.3429    3.1007   21.6963 O   0  0  0  0  0  0
    0.9197    1.0363   21.0007 O   0  5  0  0  0  0
    3.9749    2.6123   22.1336 N   0  0  0  0  0  0
    4.3460    2.5622   23.4215 C   0  0  0  0  0  0
    4.0117    1.6458   24.1707 O   0  0  0  0  0  0
    5.2543    3.7165   23.9225 C   0  0  2  0  0  0
    6.8059    3.5329   23.6995 C   0  0  1  0  0  0
    7.6527    3.0816   24.9099 C   0  0  0  0  0  0
    9.0872    2.6979   24.5430 C   0  0  0  0  0  0
    9.9026    3.5593   23.7707 C   0  0  0  0  0  0
   11.1938    3.1534   23.3777 C   0  0  0  0  0  0
   11.6860    1.8932   23.7707 C   0  0  0  0  0  0
   10.8837    1.0363   24.5487 C   0  0  0  0  0  0
    9.5888    1.4363   24.9308 C   0  0  0  0  0  0
    7.0964    2.6363   22.5677 N   0  3  0  0  0  0
    4.9667    4.0155   25.2781 O   0  0  0  0  0  0
    6.5979    1.4363   20.3322 H   0  0  0  0  0  0
    6.7328   -0.3114   20.2673 H   0  0  0  0  0  0
    5.7962    0.4223   21.5535 H   0  0  0  0  0  0
    4.3749   -0.5273   19.7707 H   0  0  0  0  0  0
    5.6337    1.4881   17.8740 H   0  0  0  0  0  0
    4.3749    0.3199   17.4816 H   0  0  0  0  0  0
    5.9724   -0.2447   17.9076 H   0  0  0  0  0  0
    4.0920    2.5145   19.6428 H   0  0  0  0  0  0
    2.9042    1.3668   19.2655 H   0  0  0  0  0  0
    3.3211    0.6363   21.8805 H   0  0  0  0  0  0
    4.2641    3.4292   21.5984 H   0  0  0  0  0  0
    4.9326    4.6009   23.3707 H   0  0  0  0  0  0
    7.1890    4.5068   23.3923 H   0  0  0  0  0  0
    7.6824    3.8633   25.6696 H   0  0  0  0  0  0
    7.1750    2.2265   25.3707 H   0  0  0  0  0  0
    9.5414    4.5298   23.4618 H   0  0  0  0  0  0
   11.8070    3.8137   22.7809 H   0  0  0  0  0  0
   12.6800    1.5861   23.4779 H   0  0  0  0  0  0
   11.2596    0.0699   24.8511 H   0  0  0  0  0  0
    8.9773    0.7639   25.5160 H   0  0  0  0  0  0
    6.6863    1.7254   22.7101 H   0  0  0  0  0  0
    8.0909    2.5502   22.3993 H   0  0  0  0  0  0
    5.3939    4.8258   25.5103 H   0  0  0  0  0  0
    6.6540    3.1031   21.7722 H   0  0  0  0  0  0
  1  2  1  0  0  0
  1 23  1  0  0  0
  1 24  1  0  0  0
  1 25  1  0  0  0
  2  3  1  0  0  0
  2  4  1  0  0  0
  2 26  1  0  0  0
  3 27  1  0  0  0
  3 28  1  0  0  0
  3 29  1  0  0  0
  4  5  1  0  0  0
  4 30  1  0  0  0
  4 31  1  0  0  0
  5  6  1  0  0  0
  5  9  1  0  0  0
  5 32  1  0  0  0
  6  7  2  0  0  0
  6  8  1  0  0  0
  9 10  1  0  0  0
  9 33  1  0  0  0
 10 11  2  0  0  0
 10 12  1  0  0  0
 12 13  1  0  0  0
 12 22  1  0  0  0
 12 34  1  0  0  0
 13 14  1  0  0  0
 13 21  1  0  0  0
 13 35  1  0  0  0
 14 15  1  0  0  0
 14 36  1  0  0  0
 14 37  1  0  0  0
 15 16  2  0  0  0
 15 20  1  0  0  0
 16 17  1  0  0  0
 16 38  1  0  0  0
 17 18  2  0  0  0
 17 39  1  0  0  0
 18 19  1  0  0  0
 18 40  1  0  0  0
 19 20  2  0  0  0
 19 41  1  0  0  0
 20 42  1  0  0  0
 21 43  1  0  0  0
 21 44  1  0  0  0
 21 46  1  0  0  0
 22 45  1  0  0  0
M  CHG  2   8  -1  21   1
M  END
> <s_m_entry_id>
264

> <s_m_entry_name>
Compounds-withfrags-for-validation-docking.1910

> <s_m_Source_Path>
/home/rodolpho/data/melina/maestro/glide-dock_XP_5RGK_M-PRO_VALIDATION

> <s_m_Source_File>
glide-dock_XP_5RGK_M-PRO_VALIDATION_pv.maegz

> <i_m_Source_File_Index>
264

> <CID>
Ubenimex

> <Potency>
12.83

> <pIC50>
4.89177

> <Source>
https://doi.org/10.1101/2020.03.23.004580

> <smiles>
C(C(C([H])([H])[H])(C(C(C(=O)O[H])(N(C(=O)C(C(C(C1=C([H])C([H])=C([H])C([H])=C1[H])([H])[H])(N([H])[H])[H])(O[H])[H])[H])[H])([H])[H])[H])([H])([H])[H]

> <Outcome>
Inactive

> <StandardizerResult>
Clear Stereo (ID: ClearStereo)
Wedge Clean (ID: WedgeClean)
Mesomerize (ID: Mesomerize)
Tautomerize (ID: Tautomerize)
Aromatize (ID: Aromatize)
Add Explicit Hydrogens (ID: AddExplicitH)
Neutralize (ID: Neutralize)
Clean 2D (ID: Clean2D)

> <chiral flag>
0

> <version>
0

> <i_lp_mmshare_version>
41011

> <i_f3d_flags>
0

> <s_epik_input>
W0NIM11bQ0hdKFtDSDNdKVtDSDJdW0NASF0oQyg9TylbT0hdKVtOSF1DKD1PKVtDQEBIXShbT0hdKVtDQEhdKFtOSDJdKVtDSDJdYzFbY0hdW2NIXVtjSF1bY0hdW2NIXTE=

> <s_epik_cmdline>
J2VwaWtfcHl0aG9uJywgJy1waHQnLCAnMC41JywgJy1waCcsICc3LjQnLCAnLXRuJywgJzgnLCAnLW1hJywgJzIwMCcsICctaW1hZScsICc8aW5maWxlLm1hZT4nLCAnLW9tYWUnLCAnPG91dGZpbGUubWFlPic=

> <r_epik_Ionization_Penalty>
0.0844

> <r_epik_Ionization_Penalty_Charging>
0.0843

> <r_epik_Ionization_Penalty_Neutral>
1.0E-4

> <r_epik_State_Penalty>
0.0749

> <r_epik_Charging_Adjusted_Penalty>
0.15915

> <i_epik_Tot_Q>
0

> <i_epik_Tot_abs_Q>
2

> <s_lp_Force_Field>
OPLS3

> <r_lp_Energy>
24.6897

> <b_lp_Chiralities_Consistent>
1

> <s_lp_Variant>
ligprep_COVID_compounds-withfrags-smallmolecules-forvalidation.maegz:7-3

> <i_glide_original_lignum>
103

> <s_i_glide_gridfile>
glide-grid_5RGK_M-PRO_COVID

> <i_i_glide_lignum>
103

> <r_i_docking_score>
-5.30736185056307

> <r_i_glide_ligand_efficiency>
-0.24124372048014

> <r_i_glide_ligand_efficiency_sa>
-0.675974392362498

> <r_i_glide_ligand_efficiency_ln>
-1.29731282700484

> <r_glide_XP_GScore>
-5.38221775056307

> <r_i_glide_gscore>
-5.38221775056307

> <r_i_glide_evdw>
-16.8488101959229

> <r_i_glide_ecoul>
-21.8280200958252

> <r_i_glide_energy>
-38.676830291748

> <r_i_glide_einternal>
8.79620456695557

> <r_i_glide_emodel>
-43.171296838137

> <r_glide_XP_HBond>
-0.777195822929333

> <i_i_glide_confnum>
1

> <i_i_glide_posenum>
3

> <r_i_glide_eff_state_penalty>
0.0748559

> <i_glide_XP_PoseRank>
1

> <r_lp_tautomer_probability>


> <s_epik_Chemistry_Notes>


> <MW>


> <cLogP>


> <TPSA>


> <Rotatable Bonds>


> <Fraction sp3>


> <HBA>


> <HBD>


> <Structure ID>


> <Submission Fragments>


$$$$
ligprep_COVID_compounds-withfrags-smallmolecules-forvalidation.maegz:90
                    3D
 Structure written by MMmdl.
 46 49  0  0  1  0            999 V2000
   10.3749    0.2362   26.1694 O   0  0  0  0  0  0
   10.2280   -0.0904   24.9932 C   0  0  0  0  0  0
   11.1219    0.5283   23.9128 C   0  0  0  0  0  0
   10.9944    2.0414   23.7712 C   0  0  0  0  0  0
   12.0990    2.7724   23.2922 C   0  0  0  0  0  0
   12.0023    4.1636   23.1029 C   0  0  0  0  0  0
   13.3707    5.0508   22.5395 Cl  0  0  0  0  0  0
   10.7912    4.8279   23.3709 C   0  0  0  0  0  0
    9.6630    4.1153   23.8198 C   0  0  0  0  0  0
    8.5036    4.8406   24.0100 O   0  0  0  0  0  0
    7.3581    4.1686   24.4438 C   0  0  1  0  0  0
    7.3877    4.1017   25.9846 C   0  0  0  0  0  0
    6.6770    5.3876   26.4324 C   0  0  0  0  0  0
    5.8828    5.7753   25.1971 C   0  0  0  0  0  0
    5.0232    6.6534   25.1860 O   0  0  0  0  0  0
    6.2321    5.0046   24.1707 N   0  0  0  0  0  0
    9.7820    2.7187   24.0378 C   0  0  0  0  0  0
    9.3175   -0.9872   24.5817 N   0  0  0  0  0  0
    8.5319   -1.8040   25.4287 C   0  0  0  0  0  0
    7.4931   -1.2289   26.1818 C   0  0  0  0  0  0
    6.6290   -1.9394   26.9340 N   0  0  0  0  0  0
    6.7837   -3.2759   26.9743 C   0  0  0  0  0  0
    7.8232   -3.9521   26.3155 C   0  0  0  0  0  0
    7.9905   -5.3402   26.4727 C   0  0  0  0  0  0
    9.0661   -5.9789   25.8360 C   0  0  0  0  0  0
    9.9481   -5.2479   25.0264 C   0  0  0  0  0  0
    9.7641   -3.8660   24.8379 C   0  0  0  0  0  0
    8.7127   -3.2035   25.5072 C   0  0  0  0  0  0
   12.1526    0.2707   24.1579 H   0  0  0  0  0  0
   10.9183    0.0691   22.9484 H   0  0  0  0  0  0
   13.0298    2.2689   23.0703 H   0  0  0  0  0  0
   10.7142    5.8930   23.2049 H   0  0  0  0  0  0
    7.1759    3.2179   23.9424 H   0  0  0  0  0  0
    6.8301    3.2240   26.3113 H   0  0  0  0  0  0
    8.4075    4.0190   26.3626 H   0  0  0  0  0  0
    6.0316    5.2268   27.2959 H   0  0  0  0  0  0
    7.3918    6.1777   26.6632 H   0  0  0  0  0  0
    5.8491    5.0404   23.2262 H   0  0  0  0  0  0
    8.9414    2.1440   24.3896 H   0  0  0  0  0  0
    9.1812   -1.1242   23.5945 H   0  0  0  0  0  0
    7.3395   -0.1648   26.1494 H   0  0  0  0  0  0
    6.0833   -3.8148   27.5972 H   0  0  0  0  0  0
    7.3283   -5.9196   27.1010 H   0  0  0  0  0  0
    9.2280   -7.0339   26.0020 H   0  0  0  0  0  0
   10.7764   -5.7625   24.5700 H   0  0  0  0  0  0
   10.4689   -3.3289   24.2240 H   0  0  0  0  0  0
  1  2  2  0  0  0
  2  3  1  0  0  0
  2 18  1  0  0  0
  3  4  1  0  0  0
  3 29  1  0  0  0
  3 30  1  0  0  0
  4  5  2  0  0  0
  4 17  1  0  0  0
  5  6  1  0  0  0
  5 31  1  0  0  0
  6  7  1  0  0  0
  6  8  2  0  0  0
  8  9  1  0  0  0
  8 32  1  0  0  0
  9 10  1  0  0  0
  9 17  2  0  0  0
 10 11  1  0  0  0
 11 12  1  0  0  0
 11 16  1  0  0  0
 11 33  1  0  0  0
 12 13  1  0  0  0
 12 34  1  0  0  0
 12 35  1  0  0  0
 13 14  1  0  0  0
 13 36  1  0  0  0
 13 37  1  0  0  0
 14 15  2  0  0  0
 14 16  1  0  0  0
 16 38  1  0  0  0
 17 39  1  0  0  0
 18 19  1  0  0  0
 18 40  1  0  0  0
 19 20  2  0  0  0
 19 28  1  0  0  0
 20 21  1  0  0  0
 20 41  1  0  0  0
 21 22  2  0  0  0
 22 23  1  0  0  0
 22 42  1  0  0  0
 23 24  2  0  0  0
 23 28  1  0  0  0
 24 25  1  0  0  0
 24 43  1  0  0  0
 25 26  2  0  0  0
 25 44  1  0  0  0
 26 27  1  0  0  0
 26 45  1  0  0  0
 27 28  2  0  0  0
 27 46  1  0  0  0
M  END
> <s_m_entry_id>
267

> <s_m_entry_name>
Compounds-withfrags-for-validation-docking.1827

> <s_m_Source_Path>
/home/rodolpho/data/melina/maestro/glide-dock_XP_5RGK_M-PRO_VALIDATION

> <s_m_Source_File>
glide-dock_XP_5RGK_M-PRO_VALIDATION_pv.maegz

> <i_m_Source_File_Index>
267

> <CID>
MAT-POS-9ff17035-1

> <Potency>
85.874

> <pIC50>
4.06614

> <Source>
Postera

> <smiles>
O=C(Cc1cc(Cl)cc(OC2CCC(=O)N2)c1)Nc1cncc2ccccc12

> <Outcome>
Inactive

> <StandardizerResult>
Clear Stereo (ID: ClearStereo)
Wedge Clean (ID: WedgeClean)
Mesomerize (ID: Mesomerize)
Tautomerize (ID: Tautomerize)
Aromatize (ID: Aromatize)
Add Explicit Hydrogens (ID: AddExplicitH)
Neutralize (ID: Neutralize)
Clean 2D (ID: Clean2D)

> <chiral flag>
0

> <version>
0

> <i_lp_mmshare_version>
41011

> <i_f3d_flags>
0

> <s_epik_input>
W2NIXTFbY0hdW2NIXVtjSF1jKGMxMiljKFtjSF1uW2NIXTIpW05IXUMoPU8pW0NIMl1jM1tjSF1jKENsKVtjSF1jKFtjSF0zKU9bQ0BIXTRbQ0gyXVtDSDJdQyg9TylbTkhdNA==

> <s_epik_cmdline>
J2VwaWtfcHl0aG9uJywgJy1waHQnLCAnMC41JywgJy1waCcsICc3LjQnLCAnLXRuJywgJzgnLCAnLW1hJywgJzIwMCcsICctaW1hZScsICc8aW5maWxlLm1hZT4nLCAnLW9tYWUnLCAnPG91dGZpbGUubWFlPic=

> <r_lp_tautomer_probability>
1.0

> <r_epik_Ionization_Penalty>
0.0029

> <r_epik_Ionization_Penalty_Charging>
0.0

> <r_epik_Ionization_Penalty_Neutral>
0.0029

> <r_epik_State_Penalty>
0.0

> <r_epik_Charging_Adjusted_Penalty>
0.0

> <i_epik_Tot_Q>
0

> <i_epik_Tot_abs_Q>
0

> <s_lp_Force_Field>
OPLS3

> <r_lp_Energy>
41.2474

> <b_lp_Chiralities_Consistent>
1

> <s_lp_Variant>
ligprep_COVID_compounds-withfrags-smallmolecules-forvalidation.maegz:90-2

> <i_glide_original_lignum>
278

> <s_i_glide_gridfile>
glide-grid_5RGK_M-PRO_COVID

> <i_i_glide_lignum>
278

> <r_i_docking_score>
-5.30051622077965

> <r_i_glide_ligand_efficiency>
-0.18930415074213

> <r_i_glide_ligand_efficiency_sa>
-0.574838895835348

> <r_i_glide_ligand_efficiency_ln>
-1.22351477367473

> <r_glide_XP_GScore>
-5.30051622077965

> <r_i_glide_gscore>
-5.30051622077965

> <r_i_glide_evdw>
-34.7957878112793

> <r_i_glide_ecoul>
-8.6646785736084

> <r_i_glide_energy>
-43.4604663848877

> <r_i_glide_einternal>
3.65271711349487

> <r_i_glide_emodel>
-58.6575658695725

> <r_glide_XP_HBond>
-0.35

> <i_i_glide_confnum>
1

> <i_i_glide_posenum>
1

> <r_i_glide_eff_state_penalty>
0.0

> <i_glide_XP_PoseRank>
1

> <s_epik_Chemistry_Notes>
This compound contains an acetal/aminal-like group ( X-CH(R)-Y where X, Y are N, S, or O) that may be acid/base labile, releasing an aldehyde.

> <MW>
395.1

> <cLogP>
3.68

> <TPSA>
80.32

> <Rotatable Bonds>
5

> <Fraction sp3>
0.19

> <HBA>
4

> <HBD>
2

> <Structure ID>


> <Submission Fragments>


$$$$
ligprep_COVID_compounds-withfrags-smallmolecules-forvalidation.maegz:88
                    3D
 Structure written by MMmdl.
 47 49  0  0  1  0            999 V2000
   12.2108    1.0768   22.8972 C   0  0  0  0  0  0
   12.1844    2.5964   22.9584 C   0  0  0  0  0  0
   13.3299    3.2969   22.5371 C   0  0  0  0  0  0
   13.3353    4.7024   22.5715 C   0  0  0  0  0  0
   12.2899    5.4319   22.9961 N   0  0  0  0  0  0
   11.1782    4.7695   23.3712 C   0  0  0  0  0  0
   11.0660    3.3620   23.3882 C   0  0  0  0  0  0
    9.8032    2.8380   23.7708 N   0  0  0  0  0  0
    9.5309    1.8609   24.6495 C   0  0  0  0  0  0
   10.3752    1.1726   25.2218 O   0  0  0  0  0  0
    8.0520    1.6345   24.9458 C   0  0  0  0  0  0
    7.4525    0.6296   23.9778 C   0  0  0  0  0  0
    6.7751    1.0545   22.8139 C   0  0  0  0  0  0
    6.2384    0.1005   21.9287 C   0  0  0  0  0  0
    5.4222    0.6104   20.4966 Cl  0  0  0  0  0  0
    6.3769   -1.2730   22.2050 C   0  0  0  0  0  0
    7.0422   -1.7108   23.3708 C   0  0  0  0  0  0
    7.1788   -3.0935   23.5677 N   0  0  0  0  0  0
    7.7817   -3.7033   24.7539 C   0  0  1  0  0  0
    7.6438   -5.2395   24.7341 C   0  0  0  0  0  0
    8.9493   -5.8193   25.2972 C   0  0  0  0  0  0
    9.7399   -4.6253   25.8214 C   0  0  0  0  0  0
    9.3961   -4.4030   27.0920 F   0  0  0  0  0  0
   11.0520   -4.8418   25.7693 F   0  0  0  0  0  0
    9.2878   -3.4266   24.9826 C   0  0  1  0  0  0
   10.0117   -3.3639   23.7708 O   0  0  0  0  0  0
    7.5532   -0.7456   24.2652 C   0  0  0  0  0  0
   12.5209    0.6664   23.8568 H   0  0  0  0  0  0
   12.9292    0.7328   22.1535 H   0  0  0  0  0  0
   11.2407    0.6563   22.6356 H   0  0  0  0  0  0
   14.2024    2.7613   22.1908 H   0  0  0  0  0  0
   14.2089    5.2546   22.2577 H   0  0  0  0  0  0
   10.3461    5.3900   23.6715 H   0  0  0  0  0  0
    9.0003    3.3620   23.4483 H   0  0  0  0  0  0
    7.9751    1.2668   25.9708 H   0  0  0  0  0  0
    7.5037    2.5769   24.9052 H   0  0  0  0  0  0
    6.6773    2.1082   22.5874 H   0  0  0  0  0  0
    5.9762   -1.9935   21.5079 H   0  0  0  0  0  0
    6.6604   -3.6971   22.9450 H   0  0  0  0  0  0
    7.2414   -3.3395   25.6304 H   0  0  0  0  0  0
    6.7837   -5.5533   25.3287 H   0  0  0  0  0  0
    7.4884   -5.6195   23.7229 H   0  0  0  0  0  0
    8.7773   -6.5677   26.0725 H   0  0  0  0  0  0
    9.5100   -6.3041   24.4962 H   0  0  0  0  0  0
    9.4720   -2.4985   25.5172 H   0  0  0  0  0  0
   10.0937   -4.2447   23.4271 H   0  0  0  0  0  0
    8.0315   -1.0338   25.1839 H   0  0  0  0  0  0
  1  2  1  0  0  0
  1 28  1  0  0  0
  1 29  1  0  0  0
  1 30  1  0  0  0
  2  3  2  0  0  0
  2  7  1  0  0  0
  3  4  1  0  0  0
  3 31  1  0  0  0
  4  5  2  0  0  0
  4 32  1  0  0  0
  5  6  1  0  0  0
  6  7  2  0  0  0
  6 33  1  0  0  0
  7  8  1  0  0  0
  8  9  1  0  0  0
  8 34  1  0  0  0
  9 10  2  0  0  0
  9 11  1  0  0  0
 11 12  1  0  0  0
 11 35  1  0  0  0
 11 36  1  0  0  0
 12 13  2  0  0  0
 12 27  1  0  0  0
 13 14  1  0  0  0
 13 37  1  0  0  0
 14 15  1  0  0  0
 14 16  2  0  0  0
 16 17  1  0  0  0
 16 38  1  0  0  0
 17 18  1  0  0  0
 17 27  2  0  0  0
 18 19  1  0  0  0
 18 39  1  0  0  0
 19 20  1  0  0  0
 19 25  1  0  0  0
 19 40  1  0  0  0
 20 21  1  0  0  0
 20 41  1  0  0  0
 20 42  1  0  0  0
 21 22  1  0  0  0
 21 43  1  0  0  0
 21 44  1  0  0  0
 22 23  1  0  0  0
 22 24  1  0  0  0
 22 25  1  0  0  0
 25 26  1  0  0  0
 25 45  1  0  0  0
 26 46  1  0  0  0
 27 47  1  0  0  0
M  END
> <s_m_entry_id>
278

> <s_m_entry_name>
Compounds-withfrags-for-validation-docking.1829

> <s_m_Source_Path>
/home/rodolpho/data/melina/maestro/glide-dock_XP_5RGK_M-PRO_VALIDATION

> <s_m_Source_File>
glide-dock_XP_5RGK_M-PRO_VALIDATION_pv.maegz

> <i_m_Source_File_Index>
278

> <CID>
MAT-POS-044491d2-2

> <Potency>
23.0318

> <pIC50>
4.63767

> <Source>
Postera

> <smiles>
Cc1ccncc1NC(=O)Cc1cc(Cl)cc(NC2CCC(F)(F)C2O)c1

> <Outcome>
Inactive

> <StandardizerResult>
Clear Stereo (ID: ClearStereo)
Wedge Clean (ID: WedgeClean)
Mesomerize (ID: Mesomerize)
Tautomerize (ID: Tautomerize)
Aromatize (ID: Aromatize)
Add Explicit Hydrogens (ID: AddExplicitH)
Neutralize (ID: Neutralize)
Clean 2D (ID: Clean2D)

> <chiral flag>
0

> <version>
0

> <i_lp_mmshare_version>
41011

> <i_f3d_flags>
0

> <s_epik_input>
W0NIM11jMVtjSF1bY0hdbltjSF1jMVtOSF1DKD1PKVtDSDJdYzJbY0hdYyhDbClbY0hdYyhbY0hdMilbTkhdW0NASF0oW0NAQEhdM1tPSF0pW0NIMl1bQ0gyXUMzKEYpRg==

> <s_epik_cmdline>
J2VwaWtfcHl0aG9uJywgJy1waHQnLCAnMC41JywgJy1waCcsICc3LjQnLCAnLXRuJywgJzgnLCAnLW1hJywgJzIwMCcsICctaW1hZScsICc8aW5maWxlLm1hZT4nLCAnLW9tYWUnLCAnPG91dGZpbGUubWFlPic=

> <r_lp_tautomer_probability>
1.0

> <r_epik_Ionization_Penalty>
0.0032

> <r_epik_Ionization_Penalty_Charging>
0.0

> <r_epik_Ionization_Penalty_Neutral>
0.0032

> <r_epik_State_Penalty>
0.0

> <r_epik_Charging_Adjusted_Penalty>
0.0

> <i_epik_Tot_Q>
0

> <i_epik_Tot_abs_Q>
0

> <s_lp_Force_Field>
OPLS3

> <r_lp_Energy>
46.916

> <b_lp_Chiralities_Consistent>
1

> <s_lp_Variant>
ligprep_COVID_compounds-withfrags-smallmolecules-forvalidation.maegz:88-4

> <i_glide_original_lignum>
272

> <s_i_glide_gridfile>
glide-grid_5RGK_M-PRO_COVID

> <i_i_glide_lignum>
272

> <r_i_docking_score>
-5.27619550875071

> <r_i_glide_ligand_efficiency>
-0.195414648472248

> <r_i_glide_ligand_efficiency_sa>
-0.58624394477269

> <r_i_glide_ligand_efficiency_ln>
-1.22821132955596

> <r_glide_XP_GScore>
-5.27619550875071

> <r_i_glide_gscore>
-5.27619550875071

> <r_i_glide_evdw>
-39.4050903320312

> <r_i_glide_ecoul>
-8.59952449798584

> <r_i_glide_energy>
-48.0046148300171

> <r_i_glide_einternal>
1.59424722194672

> <r_i_glide_emodel>
-67.9313752441049

> <r_glide_XP_HBond>
-0.59139402775415

> <i_i_glide_confnum>
1

> <i_i_glide_posenum>
3

> <r_i_glide_eff_state_penalty>
0.0

> <i_glide_XP_PoseRank>
1

> <MW>
395.12

> <cLogP>
3.8

> <TPSA>
74.25

> <Rotatable Bonds>
5

> <Fraction sp3>
0.37

> <HBA>
4

> <HBD>
3

> <s_epik_Chemistry_Notes>


> <Structure ID>


> <Submission Fragments>


$$$$
ligprep_COVID_compounds-withfrags-smallmolecules-forvalidation.maegz:4
                    3D
 Structure written by MMmdl.
 93 97  0  0  1  0            999 V2000
    5.0552    9.4805   22.7810 C   0  0  0  0  0  0
    4.4765    8.0687   22.5448 C   0  0  0  0  0  0
    3.0747    7.9366   23.1726 C   0  0  0  0  0  0
    4.3764    7.8265   21.0294 C   0  0  0  0  0  0
    5.3690    7.0363   23.0779 N   0  0  0  0  0  0
    5.7956    6.8699   24.3485 C   0  0  0  0  0  0
    5.4400    7.5885   25.2789 O   0  0  0  0  0  0
    6.7757    5.7173   24.6289 C   0  0  2  0  0  0
    8.2322    6.2972   24.4867 C   0  0  0  0  0  0
    9.2189    5.2772   24.1430 N   0  0  0  0  0  0
   10.5959    5.7617   24.0250 C   0  0  0  0  0  0
   11.5719    4.6890   23.5253 C   0  0  0  0  0  0
   12.6941    5.0381   22.7460 C   0  0  0  0  0  0
   13.5103    4.0090   22.2381 C   0  0  0  0  0  0
   13.1756    2.6734   22.5370 C   0  0  0  0  0  0
   12.1179    2.3195   23.2854 N   0  0  0  0  0  0
   11.3500    3.3103   23.7702 C   0  0  0  0  0  0
    8.7481    4.7653   22.8722 C   0  0  0  0  0  0
    7.6448    3.8209   23.2441 C   0  0  0  0  0  0
    6.4523    4.5207   23.7707 N   0  3  1  0  0  0
    5.4127    3.6261   24.3688 C   0  0  0  0  0  0
    4.8524    2.4743   23.4653 C   0  0  1  0  0  0
    5.9105    1.3788   23.2227 C   0  0  0  0  0  0
    5.5885   -0.1277   23.0985 C   0  0  1  0  0  0
    5.0715   -0.6143   21.7243 C   0  0  0  0  0  0
    5.5766    0.0382   20.4488 C   0  0  0  0  0  0
    6.7728   -0.4055   19.8474 C   0  0  0  0  0  0
    7.1714    0.0917   18.5909 C   0  0  0  0  0  0
    6.3605    1.0258   17.9191 C   0  0  0  0  0  0
    5.1640    1.4608   18.5134 C   0  0  0  0  0  0
    4.7766    0.9852   19.7807 C   0  0  0  0  0  0
    6.8622   -0.8931   23.4986 C   0  0  0  0  0  0
    7.9602   -0.3453   23.4038 O   0  0  0  0  0  0
    6.7277   -2.1092   24.0340 N   0  0  0  0  0  0
    7.8125   -2.7686   24.7516 C   0  0  1  0  0  0
    7.3174   -3.6186   25.8804 C   0  0  0  0  0  0
    6.2724   -3.3309   26.7773 C   0  0  0  0  0  0
    5.9668   -4.2866   27.7695 C   0  0  0  0  0  0
    6.7314   -5.4699   27.8844 C   0  0  0  0  0  0
    7.7803   -5.7303   26.9797 C   0  0  0  0  0  0
    8.0311   -4.8046   25.9578 C   0  0  0  0  0  0
    9.0189   -4.9402   24.8294 C   0  0  0  0  0  0
    8.6936   -3.7332   23.9085 C   0  0  1  0  0  0
    7.9746   -4.1833   22.7712 O   0  0  0  0  0  0
    3.7730    1.9029   24.1707 O   0  0  0  0  0  0
    4.4399   10.2443   22.3028 H   0  0  0  0  0  0
    6.0631    9.5735   22.3763 H   0  0  0  0  0  0
    5.1019    9.7312   23.8397 H   0  0  0  0  0  0
    3.0834    8.1390   24.2413 H   0  0  0  0  0  0
    2.6733    6.9326   23.0327 H   0  0  0  0  0  0
    2.3717    8.6357   22.7207 H   0  0  0  0  0  0
    3.7265    8.5593   20.5515 H   0  0  0  0  0  0
    3.9722    6.8388   20.8088 H   0  0  0  0  0  0
    5.3522    7.8962   20.5484 H   0  0  0  0  0  0
    5.6956    6.3866   22.3711 H   0  0  0  0  0  0
    6.6614    5.4129   25.6715 H   0  0  0  0  0  0
    8.2646    7.0880   23.7332 H   0  0  0  0  0  0
    8.5250    6.7681   25.4240 H   0  0  0  0  0  0
   10.6217    6.6334   23.3707 H   0  0  0  0  0  0
   10.9309    6.1042   25.0041 H   0  0  0  0  0  0
   12.9174    6.0711   22.5238 H   0  0  0  0  0  0
   14.3714    4.2249   21.6213 H   0  0  0  0  0  0
   13.7852    1.8612   22.1713 H   0  0  0  0  0  0
   10.5106    2.9815   24.3628 H   0  0  0  0  0  0
    8.4339    5.5432   22.1744 H   0  0  0  0  0  0
    9.4761    4.1487   22.3607 H   0  0  0  0  0  0
    7.4174    3.3553   22.2968 H   0  0  0  0  0  0
    8.0154    3.0706   23.9447 H   0  0  0  0  0  0
    5.8135    3.2085   25.2928 H   0  0  0  0  0  0
    4.5730    4.2553   24.6643 H   0  0  0  0  0  0
    4.4528    2.8620   22.5278 H   0  0  0  0  0  0
    6.4849    1.6123   22.3341 H   0  0  0  0  0  0
    6.5671    1.4672   24.0847 H   0  0  0  0  0  0
    4.8552   -0.4079   23.8563 H   0  0  0  0  0  0
    5.2964   -1.6730   21.5989 H   0  0  0  0  0  0
    3.9854   -0.5614   21.7350 H   0  0  0  0  0  0
    7.3759   -1.1548   20.3356 H   0  0  0  0  0  0
    8.0969   -0.2571   18.1595 H   0  0  0  0  0  0
    6.6526    1.4289   16.9608 H   0  0  0  0  0  0
    4.5430    2.1877   18.0057 H   0  0  0  0  0  0
    3.8495    1.3282   20.2152 H   0  0  0  0  0  0
    5.8155   -2.5483   24.0460 H   0  0  0  0  0  0
    8.4575   -2.0264   25.2282 H   0  0  0  0  0  0
    5.7118   -2.4115   26.7054 H   0  0  0  0  0  0
    5.1651   -4.0981   28.4687 H   0  0  0  0  0  0
    6.5123   -6.1883   28.6622 H   0  0  0  0  0  0
    8.3743   -6.6231   27.0590 H   0  0  0  0  0  0
   10.0293   -4.8647   25.2310 H   0  0  0  0  0  0
    8.9268   -5.9029   24.3276 H   0  0  0  0  0  0
    9.5990   -3.2447   23.5477 H   0  0  0  0  0  0
    7.6230   -3.4225   22.3347 H   0  0  0  0  0  0
    3.2965    1.3356   23.5830 H   0  0  0  0  0  0
    6.0325    4.8308   22.8866 H   0  0  0  0  0  0
  1  2  1  0  0  0
  1 46  1  0  0  0
  1 47  1  0  0  0
  1 48  1  0  0  0
  2  3  1  0  0  0
  2  4  1  0  0  0
  2  5  1  0  0  0
  3 49  1  0  0  0
  3 50  1  0  0  0
  3 51  1  0  0  0
  4 52  1  0  0  0
  4 53  1  0  0  0
  4 54  1  0  0  0
  5  6  1  0  0  0
  5 55  1  0  0  0
  6  7  2  0  0  0
  6  8  1  0  0  0
  8  9  1  0  0  0
  8 20  1  0  0  0
  8 56  1  0  0  0
  9 10  1  0  0  0
  9 57  1  0  0  0
  9 58  1  0  0  0
 10 11  1  0  0  0
 10 18  1  0  0  0
 11 12  1  0  0  0
 11 59  1  0  0  0
 11 60  1  0  0  0
 12 13  2  0  0  0
 12 17  1  0  0  0
 13 14  1  0  0  0
 13 61  1  0  0  0
 14 15  2  0  0  0
 14 62  1  0  0  0
 15 16  1  0  0  0
 15 63  1  0  0  0
 16 17  2  0  0  0
 17 64  1  0  0  0
 18 19  1  0  0  0
 18 65  1  0  0  0
 18 66  1  0  0  0
 19 20  1  0  0  0
 19 67  1  0  0  0
 19 68  1  0  0  0
 20 21  1  0  0  0
 20 93  1  0  0  0
 21 22  1  0  0  0
 21 69  1  0  0  0
 21 70  1  0  0  0
 22 23  1  0  0  0
 22 45  1  0  0  0
 22 71  1  0  0  0
 23 24  1  0  0  0
 23 72  1  0  0  0
 23 73  1  0  0  0
 24 25  1  0  0  0
 24 32  1  0  0  0
 24 74  1  0  0  0
 25 26  1  0  0  0
 25 75  1  0  0  0
 25 76  1  0  0  0
 26 27  2  0  0  0
 26 31  1  0  0  0
 27 28  1  0  0  0
 27 77  1  0  0  0
 28 29  2  0  0  0
 28 78  1  0  0  0
 29 30  1  0  0  0
 29 79  1  0  0  0
 30 31  2  0  0  0
 30 80  1  0  0  0
 31 81  1  0  0  0
 32 33  2  0  0  0
 32 34  1  0  0  0
 34 35  1  0  0  0
 34 82  1  0  0  0
 35 36  1  0  0  0
 35 43  1  0  0  0
 35 83  1  0  0  0
 36 37  2  0  0  0
 36 41  1  0  0  0
 37 38  1  0  0  0
 37 84  1  0  0  0
 38 39  2  0  0  0
 38 85  1  0  0  0
 39 40  1  0  0  0
 39 86  1  0  0  0
 40 41  2  0  0  0
 40 87  1  0  0  0
 41 42  1  0  0  0
 42 43  1  0  0  0
 42 88  1  0  0  0
 42 89  1  0  0  0
 43 44  1  0  0  0
 43 90  1  0  0  0
 44 91  1  0  0  0
 45 92  1  0  0  0
M  CHG  1  20   1
M  END
> <s_m_entry_id>
279

> <s_m_entry_name>
Compounds-withfrags-for-validation-docking.1913

> <s_m_Source_Path>
/home/rodolpho/data/melina/maestro/glide-dock_XP_5RGK_M-PRO_VALIDATION

> <s_m_Source_File>
glide-dock_XP_5RGK_M-PRO_VALIDATION_pv.maegz

> <i_m_Source_File_Index>
279

> <CID>
Indinavir

> <Potency>
43.13

> <pIC50>
4.36522

> <Source>
https://doi.org/10.1101/2020.03.23.004580

> <smiles>
C(C(C([H])([H])[H])(C([H])([H])[H])N(C(=O)C1(C([H])([H])N(C(C2=C([H])C([H])=C([H])N=C2[H])([H])[H])C([H])([H])C([H])([H])N1C(C(C(C(C(C1=C([H])C([H])=C([H])C([H])=C1[H])([H])[H])(C(=O)N(C1(C2=C(C(=C(C([H])=C2C([H])([H])C1(O[H])[H])[H])[H])[H])[H])[H])[H])([H])[H])(O[H])[H])([H])[H])[H])[H])([H])([H])[H]

> <Outcome>
Inactive

> <StandardizerResult>
Clear Stereo (ID: ClearStereo)
Wedge Clean (ID: WedgeClean)
Mesomerize (ID: Mesomerize)
Tautomerize (ID: Tautomerize)
Aromatize (ID: Aromatize)
Add Explicit Hydrogens (ID: AddExplicitH)
Neutralize (ID: Neutralize)
Clean 2D (ID: Clean2D)

> <chiral flag>
0

> <version>
0

> <i_lp_mmshare_version>
41011

> <i_f3d_flags>
0

> <s_epik_input>
W2NIXTFuW2NIXVtjSF1bY0hdYzFbQ0gyXU4oW0NIMl1bQ0BIXTJDKD1PKVtOSF1DKFtDSDNdKShbQ0gzXSlbQ0gzXSlbQ0gyXVtDSDJdTjJbQ0gyXVtDQEhdKFtPSF0pW0NIMl1bQ0BASF0oW0NIMl1jM1tjSF1bY0hdW2NIXVtjSF1bY0hdMylDKD1PKVtOSF1bQ0BASF00W0NASF0oW09IXSlbQ0gyXWMoYzQ1KVtjSF1bY0hdW2NIXVtjSF01

> <s_epik_cmdline>
J2VwaWtfcHl0aG9uJywgJy1waHQnLCAnMC41JywgJy1waCcsICc3LjQnLCAnLXRuJywgJzgnLCAnLW1hJywgJzIwMCcsICctaW1hZScsICc8aW5maWxlLm1hZT4nLCAnLW9tYWUnLCAnPG91dGZpbGUubWFlPic=

> <r_epik_Ionization_Penalty>
0.3395

> <r_epik_Ionization_Penalty_Charging>
0.3352

> <r_epik_Ionization_Penalty_Neutral>
0.0044

> <r_epik_State_Penalty>
0.5191

> <r_epik_Charging_Adjusted_Penalty>
0.854238

> <i_epik_Tot_Q>
1

> <i_epik_Tot_abs_Q>
1

> <s_lp_Force_Field>
OPLS3

> <r_lp_Energy>
54.1395

> <b_lp_Chiralities_Consistent>
1

> <s_lp_Variant>
ligprep_COVID_compounds-withfrags-smallmolecules-forvalidation.maegz:4-16

> <i_glide_original_lignum>
35

> <s_i_glide_gridfile>
glide-grid_5RGK_M-PRO_COVID

> <i_i_glide_lignum>
35

> <r_i_docking_score>
-5.2757787493482

> <r_i_glide_ligand_efficiency>
-0.117239527763293

> <r_i_glide_ligand_efficiency_sa>
-0.417008490793698

> <r_i_glide_ligand_efficiency_ln>
-1.09759708749601

> <r_glide_XP_GScore>
-5.7948507493482

> <r_i_glide_gscore>
-5.7948507493482

> <r_i_glide_evdw>
-45.2086219787598

> <r_i_glide_ecoul>
-20.3518047332764

> <r_i_glide_energy>
-65.5604267120361

> <r_i_glide_einternal>
16.6859589831314

> <r_i_glide_emodel>
-96.3216705322266

> <r_glide_XP_HBond>
-2.26100484431559

> <i_i_glide_confnum>
8

> <i_i_glide_posenum>
1

> <r_i_glide_eff_state_penalty>
0.519072

> <i_glide_XP_PoseRank>
1

> <r_lp_tautomer_probability>


> <s_epik_Chemistry_Notes>


> <MW>


> <cLogP>


> <TPSA>


> <Rotatable Bonds>


> <Fraction sp3>


> <HBA>


> <HBD>


> <Structure ID>


> <Submission Fragments>


$$$$
ligprep_COVID_compounds-withfrags-smallmolecules-forvalidation.maegz:62
                    3D
 Structure written by MMmdl.
 37 40  0  0  1  0            999 V2000
    7.7651   -0.1575   24.2141 O   0  0  0  0  0  0
    6.8678   -1.0010   24.1707 C   0  0  0  0  0  0
    5.9750   -1.0554   23.1752 N   0  0  0  0  0  0
    5.7478   -0.0303   22.2474 C   0  0  0  0  0  0
    5.4705    1.2044   22.5818 N   0  0  0  0  0  0
    5.2828    1.8363   21.4015 N   0  0  0  0  0  0
    5.4219    1.0287   20.2913 C   0  0  0  0  0  0
    5.3184    1.2539   18.9109 C   0  0  0  0  0  0
    5.5750    0.1922   18.0309 C   0  0  0  0  0  0
    5.9102   -1.0789   18.5356 C   0  0  0  0  0  0
    5.9750   -1.3007   19.9265 C   0  0  0  0  0  0
    5.7441   -0.2421   20.8333 C   0  0  0  0  0  0
    6.7397   -2.0835   25.2590 C   0  0  2  0  0  0
    7.2524   -1.5951   26.6226 C   0  0  0  0  0  0
    8.7749   -1.7026   26.6855 C   0  0  0  0  0  0
    9.1741   -3.0624   26.5701 O   0  0  0  0  0  0
    8.6441   -3.7664   25.5146 C   0  0  0  0  0  0
    9.2921   -4.9539   25.1267 C   0  0  0  0  0  0
    8.7749   -5.7310   24.0758 C   0  0  0  0  0  0
    7.5872   -5.3465   23.4274 C   0  0  0  0  0  0
    6.9158   -6.3168   22.1707 Cl  0  0  0  0  0  0
    6.9328   -4.1659   23.8131 C   0  0  0  0  0  0
    7.4627   -3.3580   24.8412 C   0  0  0  0  0  0
    5.3764   -1.8728   23.0961 H   0  0  0  0  0  0
    5.1749    2.8546   21.3712 H   0  0  0  0  0  0
    5.0580    2.2362   18.5402 H   0  0  0  0  0  0
    5.5011    0.3550   16.9707 H   0  0  0  0  0  0
    6.0866   -1.8957   17.8498 H   0  0  0  0  0  0
    6.2275   -2.2814   20.3027 H   0  0  0  0  0  0
    5.6788   -2.3157   25.3664 H   0  0  0  0  0  0
    6.9411   -0.5720   26.8284 H   0  0  0  0  0  0
    6.8212   -2.2104   27.4122 H   0  0  0  0  0  0
    9.2717   -1.1157   25.9147 H   0  0  0  0  0  0
    9.1314   -1.3037   27.6335 H   0  0  0  0  0  0
   10.1941   -5.2693   25.6318 H   0  0  0  0  0  0
    9.3030   -6.6190   23.7682 H   0  0  0  0  0  0
    6.0166   -3.8887   23.3158 H   0  0  0  0  0  0
  1  2  2  0  0  0
  2  3  1  0  0  0
  2 13  1  0  0  0
  3 24  1  0  0  0
  3  4  1  0  0  0
  4 12  1  0  0  0
  4  5  2  0  0  0
  5  6  1  0  0  0
  6 25  1  0  0  0
  6  7  1  0  0  0
  7  8  1  0  0  0
  7 12  2  0  0  0
  8 26  1  0  0  0
  8  9  2  0  0  0
  9 27  1  0  0  0
  9 10  1  0  0  0
 10 28  1  0  0  0
 10 11  2  0  0  0
 11 29  1  0  0  0
 11 12  1  0  0  0
 13 14  1  0  0  0
 13 23  1  0  0  0
 13 30  1  0  0  0
 14 15  1  0  0  0
 14 31  1  0  0  0
 14 32  1  0  0  0
 15 16  1  0  0  0
 15 33  1  0  0  0
 15 34  1  0  0  0
 16 17  1  0  0  0
 17 18  2  0  0  0
 17 23  1  0  0  0
 18 19  1  0  0  0
 18 35  1  0  0  0
 19 20  2  0  0  0
 19 36  1  0  0  0
 20 21  1  0  0  0
 20 22  1  0  0  0
 22 23  2  0  0  0
 22 37  1  0  0  0
M  END
> <s_m_entry_id>
286

> <s_m_entry_name>
Compounds-withfrags-for-validation-docking.1855

> <s_m_Source_Path>
/home/rodolpho/data/melina/maestro/glide-dock_XP_5RGK_M-PRO_VALIDATION

> <s_m_Source_File>
glide-dock_XP_5RGK_M-PRO_VALIDATION_pv.maegz

> <i_m_Source_File_Index>
286

> <CID>
DAR-DIA-6a508060-7

> <Potency>
99.5

> <pIC50>
4.00218

> <Source>
Postera

> <smiles>
O=C(NC1N=Nc2ccccc21)C1CCOc2ccc(Cl)cc21

> <Outcome>
Inactive

> <StandardizerResult>
Clear Stereo (ID: ClearStereo)
Wedge Clean (ID: WedgeClean)
Mesomerize (ID: Mesomerize)
Tautomerize (ID: Tautomerize)
Aromatize (ID: Aromatize)
Add Explicit Hydrogens (ID: AddExplicitH)
Neutralize (ID: Neutralize)
Clean 2D (ID: Clean2D)

> <chiral flag>
0

> <version>
0

> <i_lp_mmshare_version>
41011

> <i_f3d_flags>
0

> <s_epik_input>
W2NIXTFbY0hdYyhDbClbY0hdYyhjMTIpW0NAQEhdKFtDSDJdW0NIMl1PMilDKD1PKVtOSF1jKFtuSF1uMyljKGMzNClbY0hdW2NIXVtjSF1bY0hdNA==

> <s_epik_cmdline>
J2VwaWtfcHl0aG9uJywgJy1waHQnLCAnMC41JywgJy1waCcsICc3LjQnLCAnLXRuJywgJzgnLCAnLW1hJywgJzIwMCcsICctaW1hZScsICc8aW5maWxlLm1hZT4nLCAnLW9tYWUnLCAnPG91dGZpbGUubWFlPic=

> <r_lp_tautomer_probability>
1.0

> <r_epik_Ionization_Penalty>
0.0

> <r_epik_Ionization_Penalty_Charging>
0.0

> <r_epik_Ionization_Penalty_Neutral>
0.0

> <r_epik_State_Penalty>
0.0

> <r_epik_Charging_Adjusted_Penalty>
0.0

> <i_epik_Tot_Q>
0

> <i_epik_Tot_abs_Q>
0

> <s_lp_Force_Field>
OPLS3

> <r_lp_Energy>
34.1776

> <b_lp_Chiralities_Consistent>
1

> <s_lp_Variant>
ligprep_COVID_compounds-withfrags-smallmolecules-forvalidation.maegz:62-1

> <i_glide_original_lignum>
234

> <s_i_glide_gridfile>
glide-grid_5RGK_M-PRO_COVID

> <i_i_glide_lignum>
234

> <r_i_docking_score>
-5.25418542025293

> <r_i_glide_ligand_efficiency>
-0.228442844358823

> <r_i_glide_ligand_efficiency_sa>
-0.649661061176425

> <r_i_glide_ligand_efficiency_ln>
-1.27050967693651

> <r_glide_XP_GScore>
-5.25418542025293

> <r_i_glide_gscore>
-5.25418542025293

> <r_i_glide_evdw>
-28.041446685791

> <r_i_glide_ecoul>
-11.6580066680908

> <r_i_glide_energy>
-39.6994533538818

> <r_i_glide_einternal>
2.23447966575623

> <r_i_glide_emodel>
-54.9297117126153

> <r_glide_XP_HBond>
-0.9975

> <i_i_glide_confnum>
1

> <i_i_glide_posenum>
12

> <r_i_glide_eff_state_penalty>
0.0

> <i_glide_XP_PoseRank>
1

> <s_epik_Chemistry_Notes>


> <MW>


> <cLogP>


> <TPSA>


> <Rotatable Bonds>


> <Fraction sp3>


> <HBA>


> <HBD>


> <Structure ID>


> <Submission Fragments>


$$$$
ligprep_COVID_compounds-withfrags-smallmolecules-forvalidation.maegz:4
                    3D
 Structure written by MMmdl.
 93 97  0  0  1  0            999 V2000
   10.7824    7.3325   26.8128 C   0  0  0  0  0  0
    9.2623    7.6003   26.8056 C   0  0  0  0  0  0
    8.6337    6.9145   28.0424 C   0  0  0  0  0  0
    9.0456    9.1337   26.8894 C   0  0  0  0  0  0
    8.7182    7.0321   25.5607 N   0  0  0  0  0  0
    7.5431    6.3949   25.3913 C   0  0  0  0  0  0
    6.7976    6.0692   26.3153 O   0  0  0  0  0  0
    7.1347    6.1182   23.9188 C   0  0  1  0  0  0
    8.4166    5.8682   23.0738 C   0  0  0  0  0  0
    8.9951    4.5224   22.9886 N   0  0  0  0  0  0
    9.8619    4.1893   24.1246 C   0  0  0  0  0  0
   10.9720    3.2245   23.7361 C   0  0  0  0  0  0
   12.0339    3.6400   22.9248 C   0  0  0  0  0  0
   13.0400    2.7325   22.5880 C   0  0  0  0  0  0
   12.9523    1.4284   23.0782 C   0  0  0  0  0  0
   11.9325    1.0038   23.8677 N   0  0  0  0  0  0
   10.9634    1.8998   24.1862 C   0  0  0  0  0  0
    7.9587    3.5182   22.7160 C   0  0  0  0  0  0
    6.7773    3.5389   23.7142 C   0  0  0  0  0  0
    6.1579    4.9549   23.7706 N   0  3  1  0  0  0
    4.9321    4.9638   24.7329 C   0  0  0  0  0  0
    3.6368    4.5030   24.0241 C   0  0  2  0  0  0
    3.1111    5.5286   22.9882 C   0  0  0  0  0  0
    1.9121    5.0547   22.1099 C   0  0  1  0  0  0
    1.7123    5.9166   20.8301 C   0  0  0  0  0  0
    0.3291    5.8575   20.1822 C   0  0  0  0  0  0
    0.1243    5.0797   19.0389 C   0  0  0  0  0  0
   -1.1365    5.0245   18.4505 C   0  0  0  0  0  0
   -2.1882    5.7527   19.0028 C   0  0  0  0  0  0
   -1.9904    6.5368   20.1370 C   0  0  0  0  0  0
   -0.7298    6.5921   20.7253 C   0  0  0  0  0  0
    1.9806    3.5400   21.8053 C   0  0  0  0  0  0
    0.9590    2.8542   21.8571 O   0  0  0  0  0  0
    3.1756    3.0582   21.4122 N   0  0  0  0  0  0
    3.6564    1.6736   21.5322 C   0  0  1  0  0  0
    4.5051    1.1259   20.3935 C   0  0  0  0  0  0
    4.4679    1.3876   19.0213 C   0  0  0  0  0  0
    5.3815    0.7618   18.1719 C   0  0  0  0  0  0
    6.3306   -0.1213   18.6905 C   0  0  0  0  0  0
    6.3738   -0.3791   20.0616 C   0  0  0  0  0  0
    5.4648    0.2503   20.9130 C   0  0  0  0  0  0
    5.3206    0.1546   22.4188 C   0  0  0  0  0  0
    4.5548    1.4351   22.7599 C   0  0  2  0  0  0
    3.8694    1.4131   23.9964 O   0  0  0  0  0  0
    2.6455    4.2226   24.9947 O   0  0  0  0  0  0
   11.2525    7.7004   27.7258 H   0  0  0  0  0  0
   11.2795    7.8268   25.9775 H   0  0  0  0  0  0
   11.0064    6.2670   26.7421 H   0  0  0  0  0  0
    8.7773    5.8334   28.0174 H   0  0  0  0  0  0
    7.5606    7.0978   28.1086 H   0  0  0  0  0  0
    9.0765    7.2798   28.9700 H   0  0  0  0  0  0
    9.5709    9.5645   27.7428 H   0  0  0  0  0  0
    7.9945    9.3973   27.0059 H   0  0  0  0  0  0
    9.4094    9.6424   25.9967 H   0  0  0  0  0  0
    9.3222    7.1172   24.7562 H   0  0  0  0  0  0
    6.6167    6.9890   23.5138 H   0  0  0  0  0  0
    8.1274    6.1212   22.0524 H   0  0  0  0  0  0
    9.1807    6.6038   23.3341 H   0  0  0  0  0  0
   10.3347    5.0955   24.5070 H   0  0  0  0  0  0
    9.2928    3.7692   24.9519 H   0  0  0  0  0  0
   12.0778    4.6550   22.5573 H   0  0  0  0  0  0
   13.8672    3.0331   21.9621 H   0  0  0  0  0  0
   13.7126    0.6991   22.8392 H   0  0  0  0  0  0
   10.1655    1.5332   24.8155 H   0  0  0  0  0  0
    7.5747    3.6951   21.7101 H   0  0  0  0  0  0
    8.3996    2.5218   22.6789 H   0  0  0  0  0  0
    5.9861    2.8618   23.3902 H   0  0  0  0  0  0
    7.0761    3.2670   24.7274 H   0  0  0  0  0  0
    5.1911    4.2816   25.5446 H   0  0  0  0  0  0
    4.8563    5.9693   25.1475 H   0  0  0  0  0  0
    3.8381    3.5780   23.4898 H   0  0  0  0  0  0
    2.8346    6.4502   23.5031 H   0  0  0  0  0  0
    3.9438    5.7975   22.3364 H   0  0  0  0  0  0
    1.0164    5.2219   22.7117 H   0  0  0  0  0  0
    1.9424    6.9605   21.0535 H   0  0  0  0  0  0
    2.4562    5.6318   20.0839 H   0  0  0  0  0  0
    0.9384    4.5144   18.6092 H   0  0  0  0  0  0
   -1.2984    4.4206   17.5700 H   0  0  0  0  0  0
   -3.1661    5.7100   18.5463 H   0  0  0  0  0  0
   -2.8107    7.0989   20.5588 H   0  0  0  0  0  0
   -0.5793    7.1973   21.6077 H   0  0  0  0  0  0
    3.7720    3.6723   20.8773 H   0  0  0  0  0  0
    2.7827    1.0249   21.6191 H   0  0  0  0  0  0
    3.7415    2.0716   18.6073 H   0  0  0  0  0  0
    5.3546    0.9618   17.1108 H   0  0  0  0  0  0
    7.0351   -0.6039   18.0294 H   0  0  0  0  0  0
    7.1173   -1.0593   20.4505 H   0  0  0  0  0  0
    4.7514   -0.7344   22.6953 H   0  0  0  0  0  0
    6.2758    0.1133   22.9433 H   0  0  0  0  0  0
    5.2890    2.2414   22.8188 H   0  0  0  0  0  0
    3.0373    1.8805   23.8932 H   0  0  0  0  0  0
    2.4367    5.0350   25.4623 H   0  0  0  0  0  0
    5.7292    5.0593   22.8615 H   0  0  0  0  0  0
  1  2  1  0  0  0
  1 46  1  0  0  0
  1 47  1  0  0  0
  1 48  1  0  0  0
  2  3  1  0  0  0
  2  4  1  0  0  0
  2  5  1  0  0  0
  3 49  1  0  0  0
  3 50  1  0  0  0
  3 51  1  0  0  0
  4 52  1  0  0  0
  4 53  1  0  0  0
  4 54  1  0  0  0
  5  6  1  0  0  0
  5 55  1  0  0  0
  6  7  2  0  0  0
  6  8  1  0  0  0
  8  9  1  0  0  0
  8 20  1  0  0  0
  8 56  1  0  0  0
  9 10  1  0  0  0
  9 57  1  0  0  0
  9 58  1  0  0  0
 10 11  1  0  0  0
 10 18  1  0  0  0
 11 12  1  0  0  0
 11 59  1  0  0  0
 11 60  1  0  0  0
 12 13  2  0  0  0
 12 17  1  0  0  0
 13 14  1  0  0  0
 13 61  1  0  0  0
 14 15  2  0  0  0
 14 62  1  0  0  0
 15 16  1  0  0  0
 15 63  1  0  0  0
 16 17  2  0  0  0
 17 64  1  0  0  0
 18 19  1  0  0  0
 18 65  1  0  0  0
 18 66  1  0  0  0
 19 20  1  0  0  0
 19 67  1  0  0  0
 19 68  1  0  0  0
 20 21  1  0  0  0
 20 93  1  0  0  0
 21 22  1  0  0  0
 21 69  1  0  0  0
 21 70  1  0  0  0
 22 23  1  0  0  0
 22 45  1  0  0  0
 22 71  1  0  0  0
 23 24  1  0  0  0
 23 72  1  0  0  0
 23 73  1  0  0  0
 24 25  1  0  0  0
 24 32  1  0  0  0
 24 74  1  0  0  0
 25 26  1  0  0  0
 25 75  1  0  0  0
 25 76  1  0  0  0
 26 27  2  0  0  0
 26 31  1  0  0  0
 27 28  1  0  0  0
 27 77  1  0  0  0
 28 29  2  0  0  0
 28 78  1  0  0  0
 29 30  1  0  0  0
 29 79  1  0  0  0
 30 31  2  0  0  0
 30 80  1  0  0  0
 31 81  1  0  0  0
 32 33  2  0  0  0
 32 34  1  0  0  0
 34 35  1  0  0  0
 34 82  1  0  0  0
 35 36  1  0  0  0
 35 43  1  0  0  0
 35 83  1  0  0  0
 36 37  2  0  0  0
 36 41  1  0  0  0
 37 38  1  0  0  0
 37 84  1  0  0  0
 38 39  2  0  0  0
 38 85  1  0  0  0
 39 40  1  0  0  0
 39 86  1  0  0  0
 40 41  2  0  0  0
 40 87  1  0  0  0
 41 42  1  0  0  0
 42 43  1  0  0  0
 42 88  1  0  0  0
 42 89  1  0  0  0
 43 44  1  0  0  0
 43 90  1  0  0  0
 44 91  1  0  0  0
 45 92  1  0  0  0
M  CHG  1  20   1
M  END
> <s_m_entry_id>
292

> <s_m_entry_name>
Compounds-withfrags-for-validation-docking.1913

> <s_m_Source_Path>
/home/rodolpho/data/melina/maestro/glide-dock_XP_5RGK_M-PRO_VALIDATION

> <s_m_Source_File>
glide-dock_XP_5RGK_M-PRO_VALIDATION_pv.maegz

> <i_m_Source_File_Index>
292

> <CID>
Indinavir

> <Potency>
43.13

> <pIC50>
4.36522

> <Source>
https://doi.org/10.1101/2020.03.23.004580

> <smiles>
C(C(C([H])([H])[H])(C([H])([H])[H])N(C(=O)C1(C([H])([H])N(C(C2=C([H])C([H])=C([H])N=C2[H])([H])[H])C([H])([H])C([H])([H])N1C(C(C(C(C(C1=C([H])C([H])=C([H])C([H])=C1[H])([H])[H])(C(=O)N(C1(C2=C(C(=C(C([H])=C2C([H])([H])C1(O[H])[H])[H])[H])[H])[H])[H])[H])([H])[H])(O[H])[H])([H])[H])[H])[H])([H])([H])[H]

> <Outcome>
Inactive

> <StandardizerResult>
Clear Stereo (ID: ClearStereo)
Wedge Clean (ID: WedgeClean)
Mesomerize (ID: Mesomerize)
Tautomerize (ID: Tautomerize)
Aromatize (ID: Aromatize)
Add Explicit Hydrogens (ID: AddExplicitH)
Neutralize (ID: Neutralize)
Clean 2D (ID: Clean2D)

> <chiral flag>
0

> <version>
0

> <i_lp_mmshare_version>
41011

> <i_f3d_flags>
0

> <s_epik_input>
W2NIXTFuW2NIXVtjSF1bY0hdYzFbQ0gyXU4oW0NIMl1bQ0BASF0yQyg9TylbTkhdQyhbQ0gzXSkoW0NIM10pW0NIM10pW0NIMl1bQ0gyXU4yW0NIMl1bQ0BASF0oW09IXSlbQ0gyXVtDQEBIXShbQ0gyXWMzW2NIXVtjSF1bY0hdW2NIXVtjSF0zKUMoPU8pW05IXVtDQEBIXTRbQ0BASF0oW09IXSlbQ0gyXWMoYzQ1KVtjSF1bY0hdW2NIXVtjSF01

> <s_epik_cmdline>
J2VwaWtfcHl0aG9uJywgJy1waHQnLCAnMC41JywgJy1waCcsICc3LjQnLCAnLXRuJywgJzgnLCAnLW1hJywgJzIwMCcsICctaW1hZScsICc8aW5maWxlLm1hZT4nLCAnLW9tYWUnLCAnPG91dGZpbGUubWFlPic=

> <r_epik_Ionization_Penalty>
0.3395

> <r_epik_Ionization_Penalty_Charging>
0.3352

> <r_epik_Ionization_Penalty_Neutral>
0.0044

> <r_epik_State_Penalty>
0.5191

> <r_epik_Charging_Adjusted_Penalty>
0.854238

> <i_epik_Tot_Q>
1

> <i_epik_Tot_abs_Q>
1

> <s_lp_Force_Field>
OPLS3

> <r_lp_Energy>
52.4181

> <b_lp_Chiralities_Consistent>
1

> <s_lp_Variant>
ligprep_COVID_compounds-withfrags-smallmolecules-forvalidation.maegz:4-7

> <i_glide_original_lignum>
26

> <s_i_glide_gridfile>
glide-grid_5RGK_M-PRO_COVID

> <i_i_glide_lignum>
26

> <r_i_docking_score>
-5.24810038846725

> <r_i_glide_ligand_efficiency>
-0.11662445307705

> <r_i_glide_ligand_efficiency_sa>
-0.414820735763213

> <r_i_glide_ligand_efficiency_ln>
-1.09183875498569

> <r_glide_XP_GScore>
-5.76717238846724

> <r_i_glide_gscore>
-5.76717238846724

> <r_i_glide_evdw>
-39.9800338745117

> <r_i_glide_ecoul>
-17.1570072174072

> <r_i_glide_energy>
-57.1370410919189

> <r_i_glide_einternal>
6.47905969619751

> <r_i_glide_emodel>
-83.2928859342643

> <r_glide_XP_HBond>
-1.82842390862584

> <i_i_glide_confnum>
1

> <i_i_glide_posenum>
28

> <r_i_glide_eff_state_penalty>
0.519072

> <i_glide_XP_PoseRank>
1

> <r_lp_tautomer_probability>


> <s_epik_Chemistry_Notes>


> <MW>


> <cLogP>


> <TPSA>


> <Rotatable Bonds>


> <Fraction sp3>


> <HBA>


> <HBD>


> <Structure ID>


> <Submission Fragments>


$$$$
ligprep_COVID_compounds-withfrags-smallmolecules-forvalidation.maegz:25
                    3D
 Structure written by MMmdl.
 75 78  0  0  1  0            999 V2000
    0.7074    0.9072   25.1245 C   0  0  0  0  0  0
    2.1909    0.9394   25.4778 C   0  0  0  0  0  0
    2.7751    2.0182   25.5566 O   0  0  0  0  0  0
    2.8379   -0.3787   25.7291 C   0  0  0  0  0  0
    2.2961   -1.0794   26.8324 C   0  0  0  0  0  0
    2.8380   -2.2990   27.2595 C   0  0  0  0  0  0
    3.9301   -2.8380   26.5718 C   0  0  0  0  0  0
    4.4708   -2.1551   25.4715 C   0  0  0  0  0  0
    3.9748   -0.9004   25.0092 C   0  0  0  0  0  0
    4.5656   -0.1637   23.7795 C   0  0  0  0  0  0
    3.8163    0.5985   23.1691 O   0  0  0  0  0  0
    5.8963   -0.2016   23.4390 N   0  0  0  0  0  0
    6.7993   -1.1778   23.9240 C   0  0  0  0  0  0
    7.0423   -2.3251   23.1458 C   0  0  0  0  0  0
    7.7747   -3.3906   23.6881 C   0  0  0  0  0  0
    8.2783   -3.3275   25.0089 C   0  0  0  0  0  0
    8.9325   -4.5727   25.6134 C   0  0  0  0  0  0
    7.9718   -5.7637   25.4901 C   0  0  0  0  0  0
    9.2617   -4.4389   27.1119 C   0  0  0  0  0  0
   10.2155   -4.8678   24.8311 C   0  0  0  0  0  0
    8.1373   -2.1204   25.7329 C   0  0  0  0  0  0
    7.4113   -1.0474   25.1869 C   0  0  0  0  0  0
    6.5220    0.7720   22.5038 C   0  0  2  0  0  0
    6.5734    2.2333   23.0237 C   0  0  0  0  0  0
    5.7595    2.6551   23.8438 O   0  0  0  0  0  0
    7.5858    2.9757   22.5707 N   0  0  0  0  0  0
    7.9416    4.3157   23.0227 C   0  0  0  0  0  0
    8.9584    4.2782   24.1741 C   0  0  0  0  0  0
   10.0647    3.2594   23.9631 C   0  0  0  0  0  0
   11.1833    3.5719   23.1626 C   0  0  0  0  0  0
   12.2043    2.6192   22.9707 C   0  0  0  0  0  0
   12.1063    1.3539   23.5788 C   0  0  0  0  0  0
   10.9885    1.0431   24.3782 C   0  0  0  0  0  0
   10.8879   -0.1640   24.9723 F   0  0  0  0  0  0
    9.9701    1.9918   24.5705 C   0  0  0  0  0  0
    5.9819    0.7298   21.0895 C   0  0  0  0  0  0
    4.8870    1.4959   20.6239 C   0  0  0  0  0  0
    4.4872    1.4327   19.2778 C   0  0  0  0  0  0
    5.1935    0.5852   18.4126 C   0  0  0  0  0  0
    6.2359   -0.1636   18.8170 N   0  0  0  0  0  0
    6.5977   -0.0910   20.1157 C   0  0  0  0  0  0
    0.4476   -0.0351   24.6438 H   0  0  0  0  0  0
    0.4667    1.7222   24.4406 H   0  0  0  0  0  0
    0.1040    1.0195   26.0248 H   0  0  0  0  0  0
    1.4603   -0.6719   27.3829 H   0  0  0  0  0  0
    2.4161   -2.8176   28.1076 H   0  0  0  0  0  0
    4.3489   -3.7862   26.8747 H   0  0  0  0  0  0
    5.2503   -2.6919   24.9677 H   0  0  0  0  0  0
    6.5996   -2.4214   22.1648 H   0  0  0  0  0  0
    7.8944   -4.2822   23.0920 H   0  0  0  0  0  0
    8.3922   -6.6403   25.9789 H   0  0  0  0  0  0
    7.7822   -6.0382   24.4543 H   0  0  0  0  0  0
    7.0123   -5.5585   25.9645 H   0  0  0  0  0  0
    8.3678   -4.2393   27.7033 H   0  0  0  0  0  0
    9.9749   -3.6452   27.3039 H   0  0  0  0  0  0
    9.7037   -5.3576   27.4990 H   0  0  0  0  0  0
   10.7143   -5.7636   25.2001 H   0  0  0  0  0  0
   10.9236   -4.0427   24.8938 H   0  0  0  0  0  0
    9.9749   -5.0158   23.7757 H   0  0  0  0  0  0
    8.5324   -2.0080   26.7304 H   0  0  0  0  0  0
    7.2536   -0.1640   25.7809 H   0  0  0  0  0  0
    7.5750    0.4952   22.4381 H   0  0  0  0  0  0
    8.2001    2.5460   21.8858 H   0  0  0  0  0  0
    8.3752    4.8371   22.1706 H   0  0  0  0  0  0
    7.0610    4.8882   23.3198 H   0  0  0  0  0  0
    9.3951    5.2662   24.3159 H   0  0  0  0  0  0
    8.4405    4.0397   25.1034 H   0  0  0  0  0  0
   11.2537    4.5385   22.6867 H   0  0  0  0  0  0
   13.0616    2.8595   22.3586 H   0  0  0  0  0  0
   12.8908    0.6256   23.4362 H   0  0  0  0  0  0
    9.1150    1.7407   25.1819 H   0  0  0  0  0  0
    4.3694    2.1768   21.2842 H   0  0  0  0  0  0
    3.6745    2.0440   18.9149 H   0  0  0  0  0  0
    4.9197    0.5130   17.3700 H   0  0  0  0  0  0
    7.4383   -0.7106   20.3840 H   0  0  0  0  0  0
  1  2  1  0  0  0
  1 42  1  0  0  0
  1 43  1  0  0  0
  1 44  1  0  0  0
  2  3  2  0  0  0
  2  4  1  0  0  0
  4  5  2  0  0  0
  4  9  1  0  0  0
  5  6  1  0  0  0
  5 45  1  0  0  0
  6  7  2  0  0  0
  6 46  1  0  0  0
  7  8  1  0  0  0
  7 47  1  0  0  0
  8  9  2  0  0  0
  8 48  1  0  0  0
  9 10  1  0  0  0
 10 11  2  0  0  0
 10 12  1  0  0  0
 12 13  1  0  0  0
 12 23  1  0  0  0
 13 14  2  0  0  0
 13 22  1  0  0  0
 14 15  1  0  0  0
 14 49  1  0  0  0
 15 16  2  0  0  0
 15 50  1  0  0  0
 16 17  1  0  0  0
 16 21  1  0  0  0
 17 18  1  0  0  0
 17 19  1  0  0  0
 17 20  1  0  0  0
 18 51  1  0  0  0
 18 52  1  0  0  0
 18 53  1  0  0  0
 19 54  1  0  0  0
 19 55  1  0  0  0
 19 56  1  0  0  0
 20 57  1  0  0  0
 20 58  1  0  0  0
 20 59  1  0  0  0
 21 22  2  0  0  0
 21 60  1  0  0  0
 22 61  1  0  0  0
 23 24  1  0  0  0
 23 36  1  0  0  0
 23 62  1  0  0  0
 24 25  2  0  0  0
 24 26  1  0  0  0
 26 27  1  0  0  0
 26 63  1  0  0  0
 27 28  1  0  0  0
 27 64  1  0  0  0
 27 65  1  0  0  0
 28 29  1  0  0  0
 28 66  1  0  0  0
 28 67  1  0  0  0
 29 30  2  0  0  0
 29 35  1  0  0  0
 30 31  1  0  0  0
 30 68  1  0  0  0
 31 32  2  0  0  0
 31 69  1  0  0  0
 32 33  1  0  0  0
 32 70  1  0  0  0
 33 34  1  0  0  0
 33 35  2  0  0  0
 35 71  1  0  0  0
 36 37  2  0  0  0
 36 41  1  0  0  0
 37 38  1  0  0  0
 37 72  1  0  0  0
 38 39  2  0  0  0
 38 73  1  0  0  0
 39 40  1  0  0  0
 39 74  1  0  0  0
 40 41  2  0  0  0
 41 75  1  0  0  0
M  END
> <s_m_entry_id>
299

> <s_m_entry_name>
Compounds-withfrags-for-validation-docking.1892

> <s_m_Source_Path>
/home/rodolpho/data/melina/maestro/glide-dock_XP_5RGK_M-PRO_VALIDATION

> <s_m_Source_File>
glide-dock_XP_5RGK_M-PRO_VALIDATION_pv.maegz

> <i_m_Source_File_Index>
299

> <CID>
ALP-POS-02c6a514-6

> <Potency>
99.5

> <pIC50>
4.00218

> <Source>
Postera

> <smiles>
CC(=O)c1ccccc1C(=O)N(c1ccc(C(C)(C)C)cc1)C(C(=O)NCCc1cccc(F)c1)c1cccnc1

> <Outcome>
Inactive

> <StandardizerResult>
Clear Stereo (ID: ClearStereo)
Wedge Clean (ID: WedgeClean)
Mesomerize (ID: Mesomerize)
Tautomerize (ID: Tautomerize)
Aromatize (ID: Aromatize)
Add Explicit Hydrogens (ID: AddExplicitH)
Neutralize (ID: Neutralize)
Clean 2D (ID: Clean2D)

> <chiral flag>
0

> <version>
0

> <i_lp_mmshare_version>
41011

> <i_f3d_flags>
0

> <s_epik_input>
W0NIM11DKD1PKWMxW2NIXVtjSF1bY0hdW2NIXWMxQyg9TylOKGMyW2NIXVtjSF1jKEMoW0NIM10pKFtDSDNdKVtDSDNdKVtjSF1bY0hdMilbQ0BASF0oYzNbY0hdW2NIXVtjSF1uW2NIXTMpQyg9TylbTkhdW0NIMl1bQ0gyXWM0W2NIXVtjSF1bY0hdYyhGKVtjSF00

> <s_epik_cmdline>
J2VwaWtfcHl0aG9uJywgJy1waHQnLCAnMC41JywgJy1waCcsICc3LjQnLCAnLXRuJywgJzgnLCAnLW1hJywgJzIwMCcsICctaW1hZScsICc8aW5maWxlLm1hZT4nLCAnLW9tYWUnLCAnPG91dGZpbGUubWFlPic=

> <r_lp_tautomer_probability>
1.0

> <r_epik_Ionization_Penalty>
6.0E-4

> <r_epik_Ionization_Penalty_Charging>
0.0

> <r_epik_Ionization_Penalty_Neutral>
6.0E-4

> <r_epik_State_Penalty>
0.0

> <r_epik_Charging_Adjusted_Penalty>
0.0

> <i_epik_Tot_Q>
0

> <i_epik_Tot_abs_Q>
0

> <s_lp_Force_Field>
OPLS3

> <r_lp_Energy>
80.8568

> <b_lp_Chiralities_Consistent>
1

> <s_lp_Variant>
ligprep_COVID_compounds-withfrags-smallmolecules-forvalidation.maegz:25-2

> <i_glide_original_lignum>
144

> <s_i_glide_gridfile>
glide-grid_5RGK_M-PRO_COVID

> <i_i_glide_lignum>
144

> <r_i_docking_score>
-5.23312091963277

> <r_i_glide_ligand_efficiency>
-0.127637095600799

> <r_i_glide_ligand_efficiency_sa>
-0.440120433018248

> <r_i_glide_ligand_efficiency_ln>
-1.11022401812809

> <r_glide_XP_GScore>
-5.23312091963277

> <r_i_glide_gscore>
-5.23312091963277

> <r_i_glide_evdw>
-32.4011497497559

> <r_i_glide_ecoul>
-13.4138746261597

> <r_i_glide_energy>
-45.8150243759155

> <r_i_glide_einternal>
13.7927904129028

> <r_i_glide_emodel>
-59.1053031906829

> <r_glide_XP_HBond>
-1.10131193699126

> <i_i_glide_confnum>
1

> <i_i_glide_posenum>
1

> <r_i_glide_eff_state_penalty>
0.0

> <i_glide_XP_PoseRank>
1

> <MW>
551.26

> <cLogP>
6.47

> <TPSA>
79.37

> <Rotatable Bonds>
9

> <Fraction sp3>
0.24

> <HBA>
4

> <HBD>
1

> <s_epik_Chemistry_Notes>


> <Structure ID>


> <Submission Fragments>


$$$$
ligprep_COVID_compounds-withfrags-smallmolecules-forvalidation.maegz:1
                    3D
 Structure written by MMmdl.
 43 45  0  0  1  0            999 V2000
    8.0019   -0.3059   27.3704 C   0  0  0  0  0  0
    8.0808   -0.9971   26.0005 C   0  0  0  0  0  0
    7.5156   -0.1630   24.8431 C   0  0  0  0  0  0
    7.5145   -2.3376   26.0136 N   0  0  0  0  0  0
    6.3777   -2.9716   26.4955 C   0  0  0  0  0  0
    5.4232   -2.3605   27.1933 N   0  0  0  0  0  0
    4.5499   -3.3937   27.4609 C   0  0  0  0  0  0
    3.3302   -3.3946   28.1710 C   0  0  0  0  0  0
    2.5950   -4.5865   28.3316 C   0  0  0  0  0  0
    3.0765   -5.7985   27.7853 C   0  0  0  0  0  0
    4.2904   -5.8156   27.0709 C   0  0  0  0  0  0
    5.0165   -4.6186   26.9039 C   0  0  0  0  0  0
    6.2036   -4.3007   26.2616 N   0  0  0  0  0  0
    7.0443   -5.2938   25.4903 C   0  0  2  0  0  0
    8.3722   -5.6408   26.1846 C   0  0  2  0  0  0
    8.3771   -5.3637   27.5661 O   0  0  0  0  0  0
    9.3754   -4.7823   25.4278 C   0  0  1  0  0  0
   10.6549   -5.3636   25.3708 O   0  0  0  0  0  0
    8.7472   -4.6855   24.0289 C   0  0  2  0  0  0
    9.0351   -3.3978   23.2367 C   0  0  0  0  0  0
   10.3750   -2.9637   23.3709 O   0  0  0  0  0  0
    7.3411   -4.7414   24.2462 O   0  0  0  0  0  0
    2.1910   -7.2690   27.9757 Cl  0  0  0  0  0  0
    1.1039   -4.5391   29.2021 Cl  0  0  0  0  0  0
    8.3751    0.7156   27.3109 H   0  0  0  0  0  0
    8.6142   -0.8321   28.1014 H   0  0  0  0  0  0
    6.9853   -0.2552   27.7584 H   0  0  0  0  0  0
    9.1436   -1.1259   25.7916 H   0  0  0  0  0  0
    7.7850    0.8887   24.9435 H   0  0  0  0  0  0
    6.4302   -0.2321   24.7906 H   0  0  0  0  0  0
    7.8993   -0.4932   23.8795 H   0  0  0  0  0  0
    8.0646   -2.9753   25.4624 H   0  0  0  0  0  0
    2.9647   -2.4727   28.5969 H   0  0  0  0  0  0
    4.6570   -6.7480   26.6678 H   0  0  0  0  0  0
    6.4008   -6.1626   25.3707 H   0  0  0  0  0  0
    8.5709   -6.6988   26.0187 H   0  0  0  0  0  0
    9.0351   -5.9315   27.9516 H   0  0  0  0  0  0
    9.4954   -3.8069   25.8913 H   0  0  0  0  0  0
   10.6154   -6.2557   25.0453 H   0  0  0  0  0  0
    9.0271   -5.5637   23.4446 H   0  0  0  0  0  0
    8.7830   -3.5510   22.1871 H   0  0  0  0  0  0
    8.3860   -2.5944   23.5659 H   0  0  0  0  0  0
   10.9355   -3.7242   23.2754 H   0  0  0  0  0  0
  1  2  1  0  0  0
  1 25  1  0  0  0
  1 26  1  0  0  0
  1 27  1  0  0  0
  2  3  1  0  0  0
  2  4  1  0  0  0
  2 28  1  0  0  0
  3 29  1  0  0  0
  3 30  1  0  0  0
  3 31  1  0  0  0
  4  5  1  0  0  0
  4 32  1  0  0  0
  5  6  2  0  0  0
  5 13  1  0  0  0
  6  7  1  0  0  0
  7  8  2  0  0  0
  7 12  1  0  0  0
  8  9  1  0  0  0
  8 33  1  0  0  0
  9 10  2  0  0  0
  9 24  1  0  0  0
 10 11  1  0  0  0
 10 23  1  0  0  0
 11 12  2  0  0  0
 11 34  1  0  0  0
 12 13  1  0  0  0
 13 14  1  0  0  0
 14 15  1  0  0  0
 14 22  1  0  0  0
 14 35  1  0  0  0
 15 16  1  0  0  0
 15 17  1  0  0  0
 15 36  1  0  0  0
 16 37  1  0  0  0
 17 18  1  0  0  0
 17 19  1  0  0  0
 17 38  1  0  0  0
 18 39  1  0  0  0
 19 20  1  0  0  0
 19 22  1  0  0  0
 19 40  1  0  0  0
 20 21  1  0  0  0
 20 41  1  0  0  0
 20 42  1  0  0  0
 21 43  1  0  0  0
M  END
> <s_m_entry_id>
314

> <s_m_entry_name>
Compounds-withfrags-for-validation-docking.1916

> <s_m_Source_Path>
/home/rodolpho/data/melina/maestro/glide-dock_XP_5RGK_M-PRO_VALIDATION

> <s_m_Source_File>
glide-dock_XP_5RGK_M-PRO_VALIDATION_pv.maegz

> <i_m_Source_File_Index>
314

> <CID>
Maribavir

> <pIC50>
4.30103

> <Source>
https://doi.org/10.1101/2020.03.23.004580

> <smiles>
C(C(C([H])([H])[H])(N(C1=NC2=C(C(=C(C([H])=C2N1C1(C(O[H])([H])C(O[H])([H])C(C(O[H])([H])[H])([H])O1)[H])Cl)Cl)[H])[H])[H])([H])([H])[H]

> <Outcome>
Inactive

> <StandardizerResult>
Clear Stereo (ID: ClearStereo)
Wedge Clean (ID: WedgeClean)
Mesomerize (ID: Mesomerize)
Tautomerize (ID: Tautomerize)
Aromatize (ID: Aromatize)
Add Explicit Hydrogens (ID: AddExplicitH)
Neutralize (ID: Neutralize)
Clean 2D (ID: Clean2D)

> <chiral flag>
0

> <version>
0

> <i_lp_mmshare_version>
41011

> <i_f3d_flags>
0

> <s_epik_input>
W2NIXTFjKENsKWMoQ2wpW2NIXWMoYzEyKW4oYyhuMilbTkhdW0NIXShbQ0gzXSlbQ0gzXSlbQ0BASF0zW0NASF0oW09IXSlbQ0BASF0oW09IXSlbQ0BASF0oTzMpW0NIMl1bT0hd

> <s_epik_cmdline>
J2VwaWtfcHl0aG9uJywgJy1waHQnLCAnMC41JywgJy1waCcsICc3LjQnLCAnLXRuJywgJzgnLCAnLW1hJywgJzIwMCcsICctaW1hZScsICc8aW5maWxlLm1hZT4nLCAnLW9tYWUnLCAnPG91dGZpbGUubWFlPic=

> <r_epik_Ionization_Penalty>
0.01

> <r_epik_Ionization_Penalty_Charging>
0.0

> <r_epik_Ionization_Penalty_Neutral>
0.01

> <r_epik_State_Penalty>
0.0076

> <r_epik_Charging_Adjusted_Penalty>
0.00760364

> <i_epik_Tot_Q>
0

> <i_epik_Tot_abs_Q>
0

> <s_lp_Force_Field>
OPLS3

> <r_lp_Energy>
15.4015

> <b_lp_Chiralities_Consistent>
1

> <s_lp_Variant>
ligprep_COVID_compounds-withfrags-smallmolecules-forvalidation.maegz:1-10

> <i_glide_original_lignum>
10

> <s_i_glide_gridfile>
glide-grid_5RGK_M-PRO_COVID

> <i_i_glide_lignum>
10

> <r_i_docking_score>
-5.20922847880723

> <r_i_glide_ligand_efficiency>
-0.217051186616968

> <r_i_glide_ligand_efficiency_sa>
-0.626083960602827

> <r_i_glide_ligand_efficiency_ln>
-1.24680741089767

> <r_glide_XP_GScore>
-5.21683211880723

> <r_i_glide_gscore>
-5.21683211880723

> <r_i_glide_evdw>
-19.7701683044434

> <r_i_glide_ecoul>
-13.665943145752

> <r_i_glide_energy>
-33.4361114501953

> <r_i_glide_einternal>
2.57020425796509

> <r_i_glide_emodel>
-43.1463371148437

> <r_glide_XP_HBond>
-2.22346686754215

> <i_i_glide_confnum>
1

> <i_i_glide_posenum>
14

> <r_i_glide_eff_state_penalty>
0.00760364

> <i_glide_XP_PoseRank>
1

> <s_epik_Chemistry_Notes>
This compound contains an acetal/aminal-like group ( X-CH(R)-Y where X, Y are N, S, or O) that may be acid/base labile, releasing an aldehyde.

> <Potency>
50.0

> <r_lp_tautomer_probability>


> <MW>


> <cLogP>


> <TPSA>


> <Rotatable Bonds>


> <Fraction sp3>


> <HBA>


> <HBD>


> <Structure ID>


> <Submission Fragments>


$$$$
ligprep_COVID_compounds-withfrags-smallmolecules-forvalidation.maegz:4
                    3D
 Structure written by MMmdl.
 93 97  0  0  1  0            999 V2000
    5.7956    6.2814   23.9777 C   0  0  0  0  0  0
    4.9341    5.2139   24.6768 C   0  0  0  0  0  0
    5.5975    4.8238   26.0150 C   0  0  0  0  0  0
    3.5253    5.7919   24.9186 C   0  0  0  0  0  0
    4.8777    4.0622   23.7707 N   0  0  0  0  0  0
    4.2596    2.8810   23.9495 C   0  0  0  0  0  0
    3.5744    2.6334   24.9394 O   0  0  0  0  0  0
    4.3996    1.7830   22.8773 C   0  0  2  0  0  0
    5.7416    1.0821   23.1591 C   0  0  0  0  0  0
    5.8762   -0.1071   22.3340 N   0  0  0  0  0  0
    7.0565   -0.8772   22.7313 C   0  0  0  0  0  0
    7.0624   -1.5638   24.1037 C   0  0  0  0  0  0
    8.2756   -2.0810   24.6032 C   0  0  0  0  0  0
    8.2865   -2.7505   25.8404 C   0  0  0  0  0  0
    7.0716   -2.8878   26.5361 C   0  0  0  0  0  0
    5.9014   -2.4035   26.0776 N   0  0  0  0  0  0
    5.9041   -1.7602   24.8925 C   0  0  0  0  0  0
    6.0699    0.4175   20.9830 C   0  0  0  0  0  0
    4.7891    1.1448   20.5322 C   0  0  0  0  0  0
    4.3465    2.2362   21.4551 N   0  3  1  0  0  0
    3.0158    2.7205   20.9692 C   0  0  0  0  0  0
    2.4417    4.0162   21.5945 C   0  0  1  0  0  0
    1.6470    4.9034   20.6179 C   0  0  0  0  0  0
    0.6602    4.2243   19.6217 C   0  0  1  0  0  0
   -0.7626    3.9769   20.1944 C   0  0  0  0  0  0
   -0.8964    2.8043   21.1532 C   0  0  0  0  0  0
   -1.4308    3.0064   22.4430 C   0  0  0  0  0  0
   -1.5840    1.9221   23.3289 C   0  0  0  0  0  0
   -1.2144    0.6246   22.9239 C   0  0  0  0  0  0
   -0.6943    0.4164   21.6324 C   0  0  0  0  0  0
   -0.5296    1.5030   20.7543 C   0  0  0  0  0  0
    0.5862    5.1471   18.3969 C   0  0  0  0  0  0
   -0.3225    5.9715   18.2916 O   0  0  0  0  0  0
    1.5994    5.0661   17.5205 N   0  0  0  0  0  0
    1.9223    6.1295   16.5765 C   0  0  2  0  0  0
    1.3413    5.9447   15.1967 C   0  0  0  0  0  0
    0.0479    5.5122   14.8489 C   0  0  0  0  0  0
   -0.2896    5.4481   13.4781 C   0  0  0  0  0  0
    0.6523    5.8204   12.4890 C   0  0  0  0  0  0
    1.9497    6.2397   12.8553 C   0  0  0  0  0  0
    2.2657    6.2928   14.2221 C   0  0  0  0  0  0
    3.5763    6.7005   14.8295 C   0  0  0  0  0  0
    3.4488    6.3193   16.3259 C   0  0  2  0  0  0
    4.1990    5.1329   16.5706 O   0  0  0  0  0  0
    1.6024    3.7248   22.6930 O   0  0  0  0  0  0
    5.8910    7.1793   24.5896 H   0  0  0  0  0  0
    5.3551    6.5847   23.0287 H   0  0  0  0  0  0
    6.8011    5.9180   23.7625 H   0  0  0  0  0  0
    6.5823    4.3806   25.8611 H   0  0  0  0  0  0
    4.9950    4.1130   26.5789 H   0  0  0  0  0  0
    5.7281    5.6972   26.6523 H   0  0  0  0  0  0
    3.5794    6.6963   25.5249 H   0  0  0  0  0  0
    2.8753    5.0946   25.4449 H   0  0  0  0  0  0
    3.0307    6.0554   23.9847 H   0  0  0  0  0  0
    5.3205    4.2348   22.8558 H   0  0  0  0  0  0
    3.5908    1.0637   23.0285 H   0  0  0  0  0  0
    6.5863    1.7642   23.0313 H   0  0  0  0  0  0
    5.7646    0.7621   24.1813 H   0  0  0  0  0  0
    7.1760   -1.6710   21.9926 H   0  0  0  0  0  0
    7.9285   -0.2224   22.6751 H   0  0  0  0  0  0
    9.1932   -1.9731   24.0426 H   0  0  0  0  0  0
    9.1986   -3.1634   26.2479 H   0  0  0  0  0  0
    7.0440   -3.3981   27.4890 H   0  0  0  0  0  0
    4.9431   -1.3990   24.5592 H   0  0  0  0  0  0
    6.9307    1.0878   20.9395 H   0  0  0  0  0  0
    6.2798   -0.4028   20.2930 H   0  0  0  0  0  0
    4.9455    1.5595   19.5339 H   0  0  0  0  0  0
    3.9882    0.4081   20.4395 H   0  0  0  0  0  0
    3.1734    2.9279   19.9104 H   0  0  0  0  0  0
    2.2730    1.9244   21.0111 H   0  0  0  0  0  0
    3.2504    4.6469   21.9491 H   0  0  0  0  0  0
    1.1267    5.6853   21.1759 H   0  0  0  0  0  0
    2.4107    5.4430   20.0519 H   0  0  0  0  0  0
    1.0555    3.2797   19.2504 H   0  0  0  0  0  0
   -1.1184    4.8862   20.6842 H   0  0  0  0  0  0
   -1.4656    3.7887   19.3820 H   0  0  0  0  0  0
   -1.7221    3.9990   22.7554 H   0  0  0  0  0  0
   -1.9898    2.0843   24.3161 H   0  0  0  0  0  0
   -1.3351   -0.2080   23.6019 H   0  0  0  0  0  0
   -0.4250   -0.5770   21.3098 H   0  0  0  0  0  0
   -0.1268    1.3343   19.7697 H   0  0  0  0  0  0
    2.3026    4.3498   17.6410 H   0  0  0  0  0  0
    1.5362    7.0854   16.9352 H   0  0  0  0  0  0
   -0.6694    5.2415   15.6088 H   0  0  0  0  0  0
   -1.2732    5.1162   13.1789 H   0  0  0  0  0  0
    0.3807    5.7630   11.4448 H   0  0  0  0  0  0
    2.6791    6.5128   12.1064 H   0  0  0  0  0  0
    4.4155    6.2353   14.3248 H   0  0  0  0  0  0
    3.6781    7.7783   14.7174 H   0  0  0  0  0  0
    3.8659    7.0975   16.9664 H   0  0  0  0  0  0
    4.3613    5.0379   17.5104 H   0  0  0  0  0  0
    2.1262    3.4941   23.4484 H   0  0  0  0  0  0
    5.0009    3.0146   21.3675 H   0  0  0  0  0  0
  1  2  1  0  0  0
  1 46  1  0  0  0
  1 47  1  0  0  0
  1 48  1  0  0  0
  2  3  1  0  0  0
  2  4  1  0  0  0
  2  5  1  0  0  0
  3 49  1  0  0  0
  3 50  1  0  0  0
  3 51  1  0  0  0
  4 52  1  0  0  0
  4 53  1  0  0  0
  4 54  1  0  0  0
  5  6  1  0  0  0
  5 55  1  0  0  0
  6  7  2  0  0  0
  6  8  1  0  0  0
  8  9  1  0  0  0
  8 20  1  0  0  0
  8 56  1  0  0  0
  9 10  1  0  0  0
  9 57  1  0  0  0
  9 58  1  0  0  0
 10 11  1  0  0  0
 10 18  1  0  0  0
 11 12  1  0  0  0
 11 59  1  0  0  0
 11 60  1  0  0  0
 12 13  2  0  0  0
 12 17  1  0  0  0
 13 14  1  0  0  0
 13 61  1  0  0  0
 14 15  2  0  0  0
 14 62  1  0  0  0
 15 16  1  0  0  0
 15 63  1  0  0  0
 16 17  2  0  0  0
 17 64  1  0  0  0
 18 19  1  0  0  0
 18 65  1  0  0  0
 18 66  1  0  0  0
 19 20  1  0  0  0
 19 67  1  0  0  0
 19 68  1  0  0  0
 20 21  1  0  0  0
 20 93  1  0  0  0
 21 22  1  0  0  0
 21 69  1  0  0  0
 21 70  1  0  0  0
 22 23  1  0  0  0
 22 45  1  0  0  0
 22 71  1  0  0  0
 23 24  1  0  0  0
 23 72  1  0  0  0
 23 73  1  0  0  0
 24 25  1  0  0  0
 24 32  1  0  0  0
 24 74  1  0  0  0
 25 26  1  0  0  0
 25 75  1  0  0  0
 25 76  1  0  0  0
 26 27  2  0  0  0
 26 31  1  0  0  0
 27 28  1  0  0  0
 27 77  1  0  0  0
 28 29  2  0  0  0
 28 78  1  0  0  0
 29 30  1  0  0  0
 29 79  1  0  0  0
 30 31  2  0  0  0
 30 80  1  0  0  0
 31 81  1  0  0  0
 32 33  2  0  0  0
 32 34  1  0  0  0
 34 35  1  0  0  0
 34 82  1  0  0  0
 35 36  1  0  0  0
 35 43  1  0  0  0
 35 83  1  0  0  0
 36 37  2  0  0  0
 36 41  1  0  0  0
 37 38  1  0  0  0
 37 84  1  0  0  0
 38 39  2  0  0  0
 38 85  1  0  0  0
 39 40  1  0  0  0
 39 86  1  0  0  0
 40 41  2  0  0  0
 40 87  1  0  0  0
 41 42  1  0  0  0
 42 43  1  0  0  0
 42 88  1  0  0  0
 42 89  1  0  0  0
 43 44  1  0  0  0
 43 90  1  0  0  0
 44 91  1  0  0  0
 45 92  1  0  0  0
M  CHG  1  20   1
M  END
> <s_m_entry_id>
317

> <s_m_entry_name>
Compounds-withfrags-for-validation-docking.1913

> <s_m_Source_Path>
/home/rodolpho/data/melina/maestro/glide-dock_XP_5RGK_M-PRO_VALIDATION

> <s_m_Source_File>
glide-dock_XP_5RGK_M-PRO_VALIDATION_pv.maegz

> <i_m_Source_File_Index>
317

> <CID>
Indinavir

> <Potency>
43.13

> <pIC50>
4.36522

> <Source>
https://doi.org/10.1101/2020.03.23.004580

> <smiles>
C(C(C([H])([H])[H])(C([H])([H])[H])N(C(=O)C1(C([H])([H])N(C(C2=C([H])C([H])=C([H])N=C2[H])([H])[H])C([H])([H])C([H])([H])N1C(C(C(C(C(C1=C([H])C([H])=C([H])C([H])=C1[H])([H])[H])(C(=O)N(C1(C2=C(C(=C(C([H])=C2C([H])([H])C1(O[H])[H])[H])[H])[H])[H])[H])[H])([H])[H])(O[H])[H])([H])[H])[H])[H])([H])([H])[H]

> <Outcome>
Inactive

> <StandardizerResult>
Clear Stereo (ID: ClearStereo)
Wedge Clean (ID: WedgeClean)
Mesomerize (ID: Mesomerize)
Tautomerize (ID: Tautomerize)
Aromatize (ID: Aromatize)
Add Explicit Hydrogens (ID: AddExplicitH)
Neutralize (ID: Neutralize)
Clean 2D (ID: Clean2D)

> <chiral flag>
0

> <version>
0

> <i_lp_mmshare_version>
41011

> <i_f3d_flags>
0

> <s_epik_input>
W2NIXTFuW2NIXVtjSF1bY0hdYzFbQ0gyXU4oW0NIMl1bQ0BIXTJDKD1PKVtOSF1DKFtDSDNdKShbQ0gzXSlbQ0gzXSlbQ0gyXVtDSDJdTjJbQ0gyXVtDQEhdKFtPSF0pW0NIMl1bQ0BASF0oW0NIMl1jM1tjSF1bY0hdW2NIXVtjSF1bY0hdMylDKD1PKVtOSF1bQ0BIXTRbQ0BASF0oW09IXSlbQ0gyXWMoYzQ1KVtjSF1bY0hdW2NIXVtjSF01

> <s_epik_cmdline>
J2VwaWtfcHl0aG9uJywgJy1waHQnLCAnMC41JywgJy1waCcsICc3LjQnLCAnLXRuJywgJzgnLCAnLW1hJywgJzIwMCcsICctaW1hZScsICc8aW5maWxlLm1hZT4nLCAnLW9tYWUnLCAnPG91dGZpbGUubWFlPic=

> <r_epik_Ionization_Penalty>
0.3395

> <r_epik_Ionization_Penalty_Charging>
0.3352

> <r_epik_Ionization_Penalty_Neutral>
0.0044

> <r_epik_State_Penalty>
0.5191

> <r_epik_Charging_Adjusted_Penalty>
0.854238

> <i_epik_Tot_Q>
1

> <i_epik_Tot_abs_Q>
1

> <s_lp_Force_Field>
OPLS3

> <r_lp_Energy>
53.1974

> <b_lp_Chiralities_Consistent>
1

> <s_lp_Variant>
ligprep_COVID_compounds-withfrags-smallmolecules-forvalidation.maegz:4-10

> <i_glide_original_lignum>
29

> <s_i_glide_gridfile>
glide-grid_5RGK_M-PRO_COVID

> <i_i_glide_lignum>
29

> <r_i_docking_score>
-5.20330611249896

> <r_i_glide_ligand_efficiency>
-0.115629024722199

> <r_i_glide_ligand_efficiency_sa>
-0.411280103317238

> <r_i_glide_ligand_efficiency_ln>
-1.08251954939062

> <r_glide_XP_GScore>
-5.72237811249896

> <r_i_glide_gscore>
-5.72237811249896

> <r_i_glide_evdw>
-29.4137573242188

> <r_i_glide_ecoul>
-22.476505279541

> <r_i_glide_energy>
-51.8902626037598

> <r_i_glide_einternal>
7.49093055725098

> <r_i_glide_emodel>
-72.3481632055587

> <r_glide_XP_HBond>
-3.42570300357401

> <i_i_glide_confnum>
2

> <i_i_glide_posenum>
9

> <r_i_glide_eff_state_penalty>
0.519072

> <i_glide_XP_PoseRank>
1

> <r_lp_tautomer_probability>


> <s_epik_Chemistry_Notes>


> <MW>


> <cLogP>


> <TPSA>


> <Rotatable Bonds>


> <Fraction sp3>


> <HBA>


> <HBD>


> <Structure ID>


> <Submission Fragments>


$$$$
ligprep_COVID_compounds-withfrags-smallmolecules-forvalidation.maegz:1
                    3D
 Structure written by MMmdl.
 43 45  0  0  1  0            999 V2000
    7.8100    4.0212   24.2805 C   0  0  0  0  0  0
    8.3407    2.6504   24.7214 C   0  0  0  0  0  0
    9.8376    2.5063   24.4095 C   0  0  0  0  0  0
    7.5750    1.6032   24.0723 N   0  0  0  0  0  0
    7.6138    0.2176   24.0661 C   0  0  0  0  0  0
    8.3546   -0.4670   24.9348 N   0  0  0  0  0  0
    8.1068   -1.7683   24.5648 C   0  0  0  0  0  0
    8.5866   -2.9708   25.1220 C   0  0  0  0  0  0
    8.3099   -4.2079   24.5122 C   0  0  0  0  0  0
    7.5144   -4.2572   23.3452 C   0  0  0  0  0  0
    6.9856   -3.0663   22.8055 C   0  0  0  0  0  0
    7.2592   -1.8282   23.4219 C   0  0  0  0  0  0
    6.9028   -0.5080   23.1524 N   0  0  0  0  0  0
    5.8645   -0.0969   22.1203 C   0  0  1  0  0  0
    5.9169    1.3710   21.6937 C   0  0  2  0  0  0
    5.2277    2.2363   22.5707 O   0  0  0  0  0  0
    5.2371    1.3217   20.3353 C   0  0  2  0  0  0
    3.8270    1.4363   20.4246 O   0  0  0  0  0  0
    5.6466   -0.0614   19.8037 C   0  0  1  0  0  0
    6.8056    0.0282   18.7960 C   0  0  0  0  0  0
    6.3750    0.6363   17.5922 O   0  0  0  0  0  0
    6.1049   -0.8037   20.9407 O   0  0  0  0  0  0
    7.1749   -5.7637   22.5707 Cl  0  0  0  0  0  0
    8.9798   -5.6400   25.2055 Cl  0  0  0  0  0  0
    8.3417    4.8294   24.7830 H   0  0  0  0  0  0
    6.7513    4.1296   24.5184 H   0  0  0  0  0  0
    7.9231    4.1663   23.2046 H   0  0  0  0  0  0
    8.1940    2.5560   25.7982 H   0  0  0  0  0  0
   10.3749    3.4381   24.5707 H   0  0  0  0  0  0
   10.0003    2.2408   23.3707 H   0  0  0  0  0  0
   10.2958    1.7285   25.0205 H   0  0  0  0  0  0
    6.8291    1.9729   23.4884 H   0  0  0  0  0  0
    9.1750   -2.9413   26.0226 H   0  0  0  0  0  0
    6.3750   -3.0978   21.9159 H   0  0  0  0  0  0
    4.9036   -0.3911   22.5463 H   0  0  0  0  0  0
    6.9545    1.6775   21.5516 H   0  0  0  0  0  0
    5.3000    3.1281   22.2077 H   0  0  0  0  0  0
    5.5750    2.1347   19.6936 H   0  0  0  0  0  0
    3.6411    2.3232   20.7033 H   0  0  0  0  0  0
    4.7999   -0.5806   19.3514 H   0  0  0  0  0  0
    7.6348    0.5988   19.2161 H   0  0  0  0  0  0
    7.1882   -0.9655   18.5653 H   0  0  0  0  0  0
    5.8054    1.3631   17.8033 H   0  0  0  0  0  0
  1  2  1  0  0  0
  1 25  1  0  0  0
  1 26  1  0  0  0
  1 27  1  0  0  0
  2  3  1  0  0  0
  2  4  1  0  0  0
  2 28  1  0  0  0
  3 29  1  0  0  0
  3 30  1  0  0  0
  3 31  1  0  0  0
  4  5  1  0  0  0
  4 32  1  0  0  0
  5  6  2  0  0  0
  5 13  1  0  0  0
  6  7  1  0  0  0
  7  8  2  0  0  0
  7 12  1  0  0  0
  8  9  1  0  0  0
  8 33  1  0  0  0
  9 10  2  0  0  0
  9 24  1  0  0  0
 10 11  1  0  0  0
 10 23  1  0  0  0
 11 12  2  0  0  0
 11 34  1  0  0  0
 12 13  1  0  0  0
 13 14  1  0  0  0
 14 15  1  0  0  0
 14 22  1  0  0  0
 14 35  1  0  0  0
 15 16  1  0  0  0
 15 17  1  0  0  0
 15 36  1  0  0  0
 16 37  1  0  0  0
 17 18  1  0  0  0
 17 19  1  0  0  0
 17 38  1  0  0  0
 18 39  1  0  0  0
 19 20  1  0  0  0
 19 22  1  0  0  0
 19 40  1  0  0  0
 20 21  1  0  0  0
 20 41  1  0  0  0
 20 42  1  0  0  0
 21 43  1  0  0  0
M  END
> <s_m_entry_id>
344

> <s_m_entry_name>
Compounds-withfrags-for-validation-docking.1916

> <s_m_Source_Path>
/home/rodolpho/data/melina/maestro/glide-dock_XP_5RGK_M-PRO_VALIDATION

> <s_m_Source_File>
glide-dock_XP_5RGK_M-PRO_VALIDATION_pv.maegz

> <i_m_Source_File_Index>
344

> <CID>
Maribavir

> <pIC50>
4.30103

> <Source>
https://doi.org/10.1101/2020.03.23.004580

> <smiles>
C(C(C([H])([H])[H])(N(C1=NC2=C(C(=C(C([H])=C2N1C1(C(O[H])([H])C(O[H])([H])C(C(O[H])([H])[H])([H])O1)[H])Cl)Cl)[H])[H])[H])([H])([H])[H]

> <Outcome>
Inactive

> <StandardizerResult>
Clear Stereo (ID: ClearStereo)
Wedge Clean (ID: WedgeClean)
Mesomerize (ID: Mesomerize)
Tautomerize (ID: Tautomerize)
Aromatize (ID: Aromatize)
Add Explicit Hydrogens (ID: AddExplicitH)
Neutralize (ID: Neutralize)
Clean 2D (ID: Clean2D)

> <chiral flag>
0

> <version>
0

> <i_lp_mmshare_version>
41011

> <i_f3d_flags>
0

> <s_epik_input>
W2NIXTFjKENsKWMoQ2wpW2NIXWMoYzEyKW4oYyhuMilbTkhdW0NIXShbQ0gzXSlbQ0gzXSlbQ0BIXTNbQ0BIXShbT0hdKVtDQEhdKFtPSF0pW0NASF0oTzMpW0NIMl1bT0hd

> <s_epik_cmdline>
J2VwaWtfcHl0aG9uJywgJy1waHQnLCAnMC41JywgJy1waCcsICc3LjQnLCAnLXRuJywgJzgnLCAnLW1hJywgJzIwMCcsICctaW1hZScsICc8aW5maWxlLm1hZT4nLCAnLW9tYWUnLCAnPG91dGZpbGUubWFlPic=

> <r_epik_Ionization_Penalty>
0.01

> <r_epik_Ionization_Penalty_Charging>
0.0

> <r_epik_Ionization_Penalty_Neutral>
0.01

> <r_epik_State_Penalty>
0.0076

> <r_epik_Charging_Adjusted_Penalty>
0.00760364

> <i_epik_Tot_Q>
0

> <i_epik_Tot_abs_Q>
0

> <s_lp_Force_Field>
OPLS3

> <r_lp_Energy>
15.4177

> <b_lp_Chiralities_Consistent>
1

> <s_lp_Variant>
ligprep_COVID_compounds-withfrags-smallmolecules-forvalidation.maegz:1-5

> <i_glide_original_lignum>
5

> <s_i_glide_gridfile>
glide-grid_5RGK_M-PRO_COVID

> <i_i_glide_lignum>
5

> <r_i_docking_score>
-5.16888520938201

> <r_i_glide_ligand_efficiency>
-0.215370217057584

> <r_i_glide_ligand_efficiency_sa>
-0.621235205358521

> <r_i_glide_ligand_efficiency_ln>
-1.23715141529221

> <r_glide_XP_GScore>
-5.17648884938201

> <r_i_glide_gscore>
-5.17648884938201

> <r_i_glide_evdw>
-32.1500091552734

> <r_i_glide_ecoul>
-11.982008934021

> <r_i_glide_energy>
-44.1320180892944

> <r_i_glide_einternal>
7.87637948989868

> <r_i_glide_emodel>
-51.3687610295039

> <r_glide_XP_HBond>
-1.625

> <i_i_glide_confnum>
1

> <i_i_glide_posenum>
22

> <r_i_glide_eff_state_penalty>
0.00760364

> <i_glide_XP_PoseRank>
1

> <s_epik_Chemistry_Notes>
This compound contains an acetal/aminal-like group ( X-CH(R)-Y where X, Y are N, S, or O) that may be acid/base labile, releasing an aldehyde.

> <Potency>
50.0

> <r_lp_tautomer_probability>


> <MW>


> <cLogP>


> <TPSA>


> <Rotatable Bonds>


> <Fraction sp3>


> <HBA>


> <HBD>


> <Structure ID>


> <Submission Fragments>


$$$$
ligprep_COVID_compounds-withfrags-smallmolecules-forvalidation.maegz:90
                    3D
 Structure written by MMmdl.
 46 49  0  0  1  0            999 V2000
   10.7574    0.6077   25.6924 O   0  0  0  0  0  0
    9.5681    0.6173   25.3706 C   0  0  0  0  0  0
    8.6792   -0.5827   25.7302 C   0  0  0  0  0  0
    7.9385   -1.1250   24.5128 C   0  0  0  0  0  0
    8.0881   -2.4626   24.1323 C   0  0  0  0  0  0
    7.3885   -2.9633   23.0344 C   0  0  0  0  0  0
    7.5742   -4.6157   22.5726 Cl  0  0  0  0  0  0
    6.5364   -2.1286   22.3113 C   0  0  0  0  0  0
    6.3834   -0.7893   22.6737 C   0  0  0  0  0  0
    5.5145   -0.0113   21.9417 O   0  0  0  0  0  0
    6.0065    0.6287   20.7856 C   0  0  2  0  0  0
    4.8708    1.1716   19.9026 C   0  0  0  0  0  0
    5.1812    0.7004   18.4741 C   0  0  0  0  0  0
    6.3131   -0.2908   18.6704 C   0  0  0  0  0  0
    6.7746   -0.9780   17.7743 O   0  0  0  0  0  0
    6.7216   -0.3033   19.9334 N   0  0  0  0  0  0
    7.0778   -0.2952   23.7859 C   0  0  0  0  0  0
    8.9643    1.6103   24.6829 N   0  0  0  0  0  0
    9.4563    2.8993   24.3869 C   0  0  0  0  0  0
    8.7356    4.0739   24.6650 C   0  0  0  0  0  0
    9.1724    5.3205   24.3733 N   0  0  0  0  0  0
   10.3743    5.4335   23.7692 C   0  0  0  0  0  0
   11.1981    4.3434   23.4139 C   0  0  0  0  0  0
   12.4480    4.5124   22.7703 C   0  0  0  0  0  0
   13.2174    3.4016   22.4386 C   0  0  0  0  0  0
   12.7702    2.1188   22.7346 C   0  0  0  0  0  0
   11.5459    1.9220   23.3685 C   0  0  0  0  0  0
   10.7240    3.0303   23.7271 C   0  0  0  0  0  0
    9.2679   -1.3841   26.1811 H   0  0  0  0  0  0
    7.9634   -0.2645   26.4897 H   0  0  0  0  0  0
    8.7414   -3.1152   24.6935 H   0  0  0  0  0  0
    5.9935   -2.5189   21.4628 H   0  0  0  0  0  0
    6.6790    1.4269   21.0997 H   0  0  0  0  0  0
    3.9137    0.7656   20.2299 H   0  0  0  0  0  0
    4.8010    2.2576   19.9648 H   0  0  0  0  0  0
    4.3208    0.2289   17.9992 H   0  0  0  0  0  0
    5.5215    1.5232   17.8454 H   0  0  0  0  0  0
    7.4673   -0.8914   20.2772 H   0  0  0  0  0  0
    6.9420    0.7304   24.0961 H   0  0  0  0  0  0
    8.0499    1.4098   24.3052 H   0  0  0  0  0  0
    7.7574    4.0453   25.1201 H   0  0  0  0  0  0
   10.6991    6.4404   23.5499 H   0  0  0  0  0  0
   12.7999    5.5072   22.5370 H   0  0  0  0  0  0
   14.1699    3.5365   21.9475 H   0  0  0  0  0  0
   13.3794    1.2668   22.4709 H   0  0  0  0  0  0
   11.2234    0.9153   23.5895 H   0  0  0  0  0  0
  1  2  2  0  0  0
  2  3  1  0  0  0
  2 18  1  0  0  0
  3  4  1  0  0  0
  3 29  1  0  0  0
  3 30  1  0  0  0
  4  5  2  0  0  0
  4 17  1  0  0  0
  5  6  1  0  0  0
  5 31  1  0  0  0
  6  7  1  0  0  0
  6  8  2  0  0  0
  8  9  1  0  0  0
  8 32  1  0  0  0
  9 10  1  0  0  0
  9 17  2  0  0  0
 10 11  1  0  0  0
 11 12  1  0  0  0
 11 16  1  0  0  0
 11 33  1  0  0  0
 12 13  1  0  0  0
 12 34  1  0  0  0
 12 35  1  0  0  0
 13 14  1  0  0  0
 13 36  1  0  0  0
 13 37  1  0  0  0
 14 15  2  0  0  0
 14 16  1  0  0  0
 16 38  1  0  0  0
 17 39  1  0  0  0
 18 19  1  0  0  0
 18 40  1  0  0  0
 19 20  2  0  0  0
 19 28  1  0  0  0
 20 21  1  0  0  0
 20 41  1  0  0  0
 21 22  2  0  0  0
 22 23  1  0  0  0
 22 42  1  0  0  0
 23 24  2  0  0  0
 23 28  1  0  0  0
 24 25  1  0  0  0
 24 43  1  0  0  0
 25 26  2  0  0  0
 25 44  1  0  0  0
 26 27  1  0  0  0
 26 45  1  0  0  0
 27 28  2  0  0  0
 27 46  1  0  0  0
M  END
> <s_m_entry_id>
346

> <s_m_entry_name>
Compounds-withfrags-for-validation-docking.1827

> <s_m_Source_Path>
/home/rodolpho/data/melina/maestro/glide-dock_XP_5RGK_M-PRO_VALIDATION

> <s_m_Source_File>
glide-dock_XP_5RGK_M-PRO_VALIDATION_pv.maegz

> <i_m_Source_File_Index>
346

> <CID>
MAT-POS-9ff17035-1

> <Potency>
85.874

> <pIC50>
4.06614

> <Source>
Postera

> <smiles>
O=C(Cc1cc(Cl)cc(OC2CCC(=O)N2)c1)Nc1cncc2ccccc12

> <Outcome>
Inactive

> <StandardizerResult>
Clear Stereo (ID: ClearStereo)
Wedge Clean (ID: WedgeClean)
Mesomerize (ID: Mesomerize)
Tautomerize (ID: Tautomerize)
Aromatize (ID: Aromatize)
Add Explicit Hydrogens (ID: AddExplicitH)
Neutralize (ID: Neutralize)
Clean 2D (ID: Clean2D)

> <chiral flag>
0

> <version>
0

> <i_lp_mmshare_version>
41011

> <i_f3d_flags>
0

> <s_epik_input>
W2NIXTFbY0hdW2NIXVtjSF1jKGMxMiljKFtjSF1uW2NIXTIpW05IXUMoPU8pW0NIMl1jM1tjSF1jKENsKVtjSF1jKFtjSF0zKU9bQ0BASF00W0NIMl1bQ0gyXUMoPU8pW05IXTQ=

> <s_epik_cmdline>
J2VwaWtfcHl0aG9uJywgJy1waHQnLCAnMC41JywgJy1waCcsICc3LjQnLCAnLXRuJywgJzgnLCAnLW1hJywgJzIwMCcsICctaW1hZScsICc8aW5maWxlLm1hZT4nLCAnLW9tYWUnLCAnPG91dGZpbGUubWFlPic=

> <r_lp_tautomer_probability>
1.0

> <r_epik_Ionization_Penalty>
0.0029

> <r_epik_Ionization_Penalty_Charging>
0.0

> <r_epik_Ionization_Penalty_Neutral>
0.0029

> <r_epik_State_Penalty>
0.0

> <r_epik_Charging_Adjusted_Penalty>
0.0

> <i_epik_Tot_Q>
0

> <i_epik_Tot_abs_Q>
0

> <s_lp_Force_Field>
OPLS3

> <r_lp_Energy>
41.3749

> <b_lp_Chiralities_Consistent>
1

> <s_lp_Variant>
ligprep_COVID_compounds-withfrags-smallmolecules-forvalidation.maegz:90-1

> <i_glide_original_lignum>
277

> <s_i_glide_gridfile>
glide-grid_5RGK_M-PRO_COVID

> <i_i_glide_lignum>
277

> <r_i_docking_score>
-5.16537874367594

> <r_i_glide_ligand_efficiency>
-0.184477812274141

> <r_i_glide_ligand_efficiency_sa>
-0.560183289685189

> <r_i_glide_ligand_efficiency_ln>
-1.19232107615045

> <r_glide_XP_GScore>
-5.16537874367594

> <r_i_glide_gscore>
-5.16537874367594

> <r_i_glide_evdw>
-38.2318572998047

> <r_i_glide_ecoul>
-11.4261331558228

> <r_i_glide_energy>
-49.6579904556274

> <r_i_glide_einternal>
10.4717597961426

> <r_i_glide_emodel>
-70.3639458677812

> <r_glide_XP_HBond>
-0.567359470735451

> <i_i_glide_confnum>
1

> <i_i_glide_posenum>
2

> <r_i_glide_eff_state_penalty>
0.0

> <i_glide_XP_PoseRank>
1

> <s_epik_Chemistry_Notes>
This compound contains an acetal/aminal-like group ( X-CH(R)-Y where X, Y are N, S, or O) that may be acid/base labile, releasing an aldehyde.

> <MW>
395.1

> <cLogP>
3.68

> <TPSA>
80.32

> <Rotatable Bonds>
5

> <Fraction sp3>
0.19

> <HBA>
4

> <HBD>
2

> <Structure ID>


> <Submission Fragments>


$$$$
ligprep_COVID_compounds-withfrags-smallmolecules-forvalidation.maegz:4
                    3D
 Structure written by MMmdl.
 93 97  0  0  1  0            999 V2000
    4.0147    8.7477   19.4000 C   0  0  0  0  0  0
    4.6970    8.5270   20.7671 C   0  0  0  0  0  0
    6.2143    8.3305   20.5268 C   0  0  0  0  0  0
    4.4569    9.7815   21.6424 C   0  0  0  0  0  0
    4.0894    7.3308   21.3690 N   0  0  0  0  0  0
    2.9637    7.2483   22.1113 C   0  0  0  0  0  0
    2.5015    8.1807   22.7679 O   0  0  0  0  0  0
    2.2121    5.8930   22.1403 C   0  0  1  0  0  0
    1.3850    5.7949   20.8304 C   0  0  0  0  0  0
    0.8328    4.4871   20.4817 N   0  0  0  0  0  0
   -0.2818    4.1198   21.3650 C   0  0  0  0  0  0
   -0.6859    2.6590   21.2209 C   0  0  0  0  0  0
   -1.9805    2.3056   20.8229 C   0  0  0  0  0  0
   -2.3177    0.9567   20.6929 C   0  0  0  0  0  0
   -1.3431   -0.0035   20.9702 C   0  0  0  0  0  0
   -0.0824    0.3161   21.3607 N   0  0  0  0  0  0
    0.2283    1.6323   21.4818 C   0  0  0  0  0  0
    1.9181    3.5004   20.4342 C   0  0  0  0  0  0
    2.6975    3.3510   21.7608 C   0  0  0  0  0  0
    3.1751    4.7249   22.3019 N   0  3  2  0  0  0
    3.6226    4.5857   23.7869 C   0  0  0  0  0  0
    5.0127    3.9174   23.9077 C   0  0  2  0  0  0
    5.0367    2.5126   23.2534 C   0  0  0  0  0  0
    6.4261    2.0167   22.7510 C   0  0  2  0  0  0
    6.3836    0.5526   22.2229 C   0  0  0  0  0  0
    5.9932    0.3778   20.7557 C   0  0  0  0  0  0
    5.2532    1.3714   20.1065 C   0  0  0  0  0  0
    4.8956    1.2129   18.7706 C   0  0  0  0  0  0
    5.2730    0.0582   18.0883 C   0  0  0  0  0  0
    6.0046   -0.9390   18.7297 C   0  0  0  0  0  0
    6.3640   -0.7797   20.0656 C   0  0  0  0  0  0
    7.5549    2.2065   23.7889 C   0  0  0  0  0  0
    7.8640    1.2858   24.5479 O   0  0  0  0  0  0
    8.1572    3.4086   23.8063 N   0  0  0  0  0  0
    9.3399    3.7543   24.6041 C   0  0  1  0  0  0
   10.6144    3.2748   23.9249 C   0  0  0  0  0  0
   11.1916    2.0027   23.8980 C   0  0  0  0  0  0
   12.3862    1.7968   23.2068 C   0  0  0  0  0  0
   13.0098    2.8603   22.5520 C   0  0  0  0  0  0
   12.4429    4.1354   22.5883 C   0  0  0  0  0  0
   11.2488    4.3423   23.2806 C   0  0  0  0  0  0
   10.4420    5.6091   23.4627 C   0  0  0  0  0  0
    9.5752    5.2767   24.6805 C   0  0  1  0  0  0
    8.4196    6.0853   24.8118 O   0  0  0  0  0  0
    5.3600    3.8348   25.2791 O   0  0  0  0  0  0
    4.4145    9.6240   18.8873 H   0  0  0  0  0  0
    2.9392    8.8999   19.5065 H   0  0  0  0  0  0
    4.1568    7.8933   18.7361 H   0  0  0  0  0  0
    6.4131    7.4402   19.9284 H   0  0  0  0  0  0
    6.7677    8.2256   21.4603 H   0  0  0  0  0  0
    6.6469    9.1805   19.9974 H   0  0  0  0  0  0
    4.8324   10.6840   21.1578 H   0  0  0  0  0  0
    4.9575    9.7092   22.6084 H   0  0  0  0  0  0
    3.3947    9.9360   21.8378 H   0  0  0  0  0  0
    4.5922    6.4734   21.1931 H   0  0  0  0  0  0
    1.5491    5.8655   23.0078 H   0  0  0  0  0  0
    0.5890    6.5418   20.8654 H   0  0  0  0  0  0
    2.0318    6.0868   19.9991 H   0  0  0  0  0  0
   -0.0529    4.3464   22.4073 H   0  0  0  0  0  0
   -1.1531    4.7264   21.1115 H   0  0  0  0  0  0
   -2.7162    3.0677   20.6103 H   0  0  0  0  0  0
   -3.3100    0.6630   20.3835 H   0  0  0  0  0  0
   -1.5666   -1.0563   20.8794 H   0  0  0  0  0  0
    1.2390    1.8543   21.7916 H   0  0  0  0  0  0
    1.5267    2.5310   20.1237 H   0  0  0  0  0  0
    2.6112    3.7893   19.6422 H   0  0  0  0  0  0
    2.0856    2.8813   22.5320 H   0  0  0  0  0  0
    3.5894    2.7428   21.6113 H   0  0  0  0  0  0
    3.6554    5.5932   24.2055 H   0  0  0  0  0  0
    2.8365    4.0229   24.2937 H   0  0  0  0  0  0
    5.7577    4.5330   23.4042 H   0  0  0  0  0  0
    4.5816    1.7771   23.9199 H   0  0  0  0  0  0
    4.3732    2.5503   22.3878 H   0  0  0  0  0  0
    6.6735    2.6301   21.8819 H   0  0  0  0  0  0
    7.3536    0.0787   22.3833 H   0  0  0  0  0  0
    5.6954   -0.0369   22.8329 H   0  0  0  0  0  0
    4.9607    2.2682   20.6336 H   0  0  0  0  0  0
    4.3283    1.9813   18.2664 H   0  0  0  0  0  0
    4.9942   -0.0657   17.0523 H   0  0  0  0  0  0
    6.2908   -1.8318   18.1936 H   0  0  0  0  0  0
    6.9307   -1.5544   20.5613 H   0  0  0  0  0  0
    7.8429    4.1142   23.1563 H   0  0  0  0  0  0
    9.2580    3.3637   25.6210 H   0  0  0  0  0  0
   10.7215    1.1701   24.4002 H   0  0  0  0  0  0
   12.8290    0.8120   23.1790 H   0  0  0  0  0  0
   13.9342    2.6966   22.0179 H   0  0  0  0  0  0
   12.9363    4.9505   22.0797 H   0  0  0  0  0  0
   11.0568    6.4920   23.6419 H   0  0  0  0  0  0
    9.8295    5.8051   22.5811 H   0  0  0  0  0  0
   10.1893    5.4619   25.5652 H   0  0  0  0  0  0
    7.8019    5.8508   24.1154 H   0  0  0  0  0  0
    6.3174    3.7999   25.3515 H   0  0  0  0  0  0
    4.0105    4.9568   21.7835 H   0  0  0  0  0  0
  1  2  1  0  0  0
  1 46  1  0  0  0
  1 47  1  0  0  0
  1 48  1  0  0  0
  2  3  1  0  0  0
  2  4  1  0  0  0
  2  5  1  0  0  0
  3 49  1  0  0  0
  3 50  1  0  0  0
  3 51  1  0  0  0
  4 52  1  0  0  0
  4 53  1  0  0  0
  4 54  1  0  0  0
  5  6  1  0  0  0
  5 55  1  0  0  0
  6  7  2  0  0  0
  6  8  1  0  0  0
  8  9  1  0  0  0
  8 20  1  0  0  0
  8 56  1  0  0  0
  9 10  1  0  0  0
  9 57  1  0  0  0
  9 58  1  0  0  0
 10 11  1  0  0  0
 10 18  1  0  0  0
 11 12  1  0  0  0
 11 59  1  0  0  0
 11 60  1  0  0  0
 12 13  2  0  0  0
 12 17  1  0  0  0
 13 14  1  0  0  0
 13 61  1  0  0  0
 14 15  2  0  0  0
 14 62  1  0  0  0
 15 16  1  0  0  0
 15 63  1  0  0  0
 16 17  2  0  0  0
 17 64  1  0  0  0
 18 19  1  0  0  0
 18 65  1  0  0  0
 18 66  1  0  0  0
 19 20  1  0  0  0
 19 67  1  0  0  0
 19 68  1  0  0  0
 20 21  1  0  0  0
 20 93  1  0  0  0
 21 22  1  0  0  0
 21 69  1  0  0  0
 21 70  1  0  0  0
 22 23  1  0  0  0
 22 45  1  0  0  0
 22 71  1  0  0  0
 23 24  1  0  0  0
 23 72  1  0  0  0
 23 73  1  0  0  0
 24 25  1  0  0  0
 24 32  1  0  0  0
 24 74  1  0  0  0
 25 26  1  0  0  0
 25 75  1  0  0  0
 25 76  1  0  0  0
 26 27  2  0  0  0
 26 31  1  0  0  0
 27 28  1  0  0  0
 27 77  1  0  0  0
 28 29  2  0  0  0
 28 78  1  0  0  0
 29 30  1  0  0  0
 29 79  1  0  0  0
 30 31  2  0  0  0
 30 80  1  0  0  0
 31 81  1  0  0  0
 32 33  2  0  0  0
 32 34  1  0  0  0
 34 35  1  0  0  0
 34 82  1  0  0  0
 35 36  1  0  0  0
 35 43  1  0  0  0
 35 83  1  0  0  0
 36 37  2  0  0  0
 36 41  1  0  0  0
 37 38  1  0  0  0
 37 84  1  0  0  0
 38 39  2  0  0  0
 38 85  1  0  0  0
 39 40  1  0  0  0
 39 86  1  0  0  0
 40 41  2  0  0  0
 40 87  1  0  0  0
 41 42  1  0  0  0
 42 43  1  0  0  0
 42 88  1  0  0  0
 42 89  1  0  0  0
 43 44  1  0  0  0
 43 90  1  0  0  0
 44 91  1  0  0  0
 45 92  1  0  0  0
M  CHG  1  20   1
M  END
> <s_m_entry_id>
354

> <s_m_entry_name>
Compounds-withfrags-for-validation-docking.1913

> <s_m_Source_Path>
/home/rodolpho/data/melina/maestro/glide-dock_XP_5RGK_M-PRO_VALIDATION

> <s_m_Source_File>
glide-dock_XP_5RGK_M-PRO_VALIDATION_pv.maegz

> <i_m_Source_File_Index>
354

> <CID>
Indinavir

> <Potency>
43.13

> <pIC50>
4.36522

> <Source>
https://doi.org/10.1101/2020.03.23.004580

> <smiles>
C(C(C([H])([H])[H])(C([H])([H])[H])N(C(=O)C1(C([H])([H])N(C(C2=C([H])C([H])=C([H])N=C2[H])([H])[H])C([H])([H])C([H])([H])N1C(C(C(C(C(C1=C([H])C([H])=C([H])C([H])=C1[H])([H])[H])(C(=O)N(C1(C2=C(C(=C(C([H])=C2C([H])([H])C1(O[H])[H])[H])[H])[H])[H])[H])[H])([H])[H])(O[H])[H])([H])[H])[H])[H])([H])([H])[H]

> <Outcome>
Inactive

> <StandardizerResult>
Clear Stereo (ID: ClearStereo)
Wedge Clean (ID: WedgeClean)
Mesomerize (ID: Mesomerize)
Tautomerize (ID: Tautomerize)
Aromatize (ID: Aromatize)
Add Explicit Hydrogens (ID: AddExplicitH)
Neutralize (ID: Neutralize)
Clean 2D (ID: Clean2D)

> <chiral flag>
0

> <version>
0

> <i_lp_mmshare_version>
41011

> <i_f3d_flags>
0

> <s_epik_input>
W2NIXTFuW2NIXVtjSF1bY0hdYzFbQ0gyXU4oW0NIMl1bQ0BASF0yQyg9TylbTkhdQyhbQ0gzXSkoW0NIM10pW0NIM10pW0NIMl1bQ0gyXU4yW0NIMl1bQ0BASF0oW09IXSlbQ0gyXVtDQEhdKFtDSDJdYzNbY0hdW2NIXVtjSF1bY0hdW2NIXTMpQyg9TylbTkhdW0NAQEhdNFtDQEhdKFtPSF0pW0NIMl1jKGM0NSlbY0hdW2NIXVtjSF1bY0hdNQ==

> <s_epik_cmdline>
J2VwaWtfcHl0aG9uJywgJy1waHQnLCAnMC41JywgJy1waCcsICc3LjQnLCAnLXRuJywgJzgnLCAnLW1hJywgJzIwMCcsICctaW1hZScsICc8aW5maWxlLm1hZT4nLCAnLW9tYWUnLCAnPG91dGZpbGUubWFlPic=

> <r_epik_Ionization_Penalty>
0.3395

> <r_epik_Ionization_Penalty_Charging>
0.3352

> <r_epik_Ionization_Penalty_Neutral>
0.0044

> <r_epik_State_Penalty>
0.5191

> <r_epik_Charging_Adjusted_Penalty>
0.854238

> <i_epik_Tot_Q>
1

> <i_epik_Tot_abs_Q>
1

> <s_lp_Force_Field>
OPLS3

> <r_lp_Energy>
56.1569

> <b_lp_Chiralities_Consistent>
1

> <s_lp_Variant>
ligprep_COVID_compounds-withfrags-smallmolecules-forvalidation.maegz:4-32

> <i_glide_original_lignum>
51

> <s_i_glide_gridfile>
glide-grid_5RGK_M-PRO_COVID

> <i_i_glide_lignum>
51

> <r_i_docking_score>
-5.14863343621403

> <r_i_glide_ligand_efficiency>
-0.114414076360312

> <r_i_glide_ligand_efficiency_sa>
-0.406958661629023

> <r_i_glide_ligand_efficiency_ln>
-1.07114519631272

> <r_glide_XP_GScore>
-5.66770543621403

> <r_i_glide_gscore>
-5.66770543621403

> <r_i_glide_evdw>
-40.236946105957

> <r_i_glide_ecoul>
-15.9052610397339

> <r_i_glide_energy>
-56.1422071456909

> <r_i_glide_einternal>
10.083104133606

> <r_i_glide_emodel>
-86.5426951252101

> <r_glide_XP_HBond>
-1.2954377611951

> <i_i_glide_confnum>
32

> <i_i_glide_posenum>
54

> <r_i_glide_eff_state_penalty>
0.519072

> <i_glide_XP_PoseRank>
1

> <r_lp_tautomer_probability>


> <s_epik_Chemistry_Notes>


> <MW>


> <cLogP>


> <TPSA>


> <Rotatable Bonds>


> <Fraction sp3>


> <HBA>


> <HBD>


> <Structure ID>


> <Submission Fragments>


$$$$
ligprep_COVID_compounds-withfrags-smallmolecules-forvalidation.maegz:6
                    3D
 Structure written by MMmdl.
 57 60  0  0  1  0            999 V2000
   -2.7016    2.2044   21.7745 C   0  0  0  0  0  0
   -1.3130    1.5073   21.8165 C   0  0  2  0  0  0
   -1.5325   -0.0176   21.9619 C   0  0  0  0  0  0
   -2.2444   -0.7040   20.9623 C   0  0  0  0  0  0
   -2.5035   -2.0644   21.0398 C   0  0  0  0  0  0
   -2.0494   -2.7834   22.1323 C   0  0  0  0  0  0
   -1.3280   -2.1487   23.1394 C   0  0  0  0  0  0
   -0.9028   -2.9514   24.1713 O   0  0  0  0  0  0
   -1.0422   -0.7605   23.0665 C   0  0  0  0  0  0
   -0.2525   -0.0920   24.1589 C   0  0  0  0  0  0
   -0.1305   -0.5802   25.2850 O   0  0  0  0  0  0
    0.4393    1.1308   23.7260 C   0  0  0  0  0  0
   -0.4534    2.1493   22.9876 C   0  0  1  0  0  0
    0.3069    3.5091   22.7312 C   0  0  1  0  0  0
    1.8607    3.3965   22.5995 C   0  0  2  0  0  0
    2.3439    2.7666   21.2422 C   0  0  1  0  0  0
    2.3379    3.9167   20.1862 N   0  3  0  0  0  0
    1.5526    3.6095   18.8918 C   0  0  0  0  0  0
    1.9413    5.2943   20.7549 C   0  0  0  0  0  0
    3.6961    2.0261   21.3452 C   0  0  0  0  0  0
    3.9377    1.4205   20.2296 O   0  5  0  0  0  0
    4.4929    1.9432   22.4528 C   0  0  0  0  0  0
    5.7784    1.2343   22.4208 C   0  0  0  0  0  0
    6.7757    1.8366   21.7602 N   0  0  0  0  0  0
    5.9626    0.1504   22.9735 O   0  0  0  0  0  0
    4.0121    2.5910   23.6949 C   0  0  0  0  0  0
    4.8021    2.9734   24.5651 O   0  0  0  0  0  0
    2.4620    2.7174   23.8674 C   0  0  2  0  0  0
    1.7262    1.3768   24.1062 C   0  0  0  0  0  0
    2.4837    0.5185   24.8582 O   0  0  0  0  0  0
    2.2214    3.5415   25.0047 O   0  0  0  0  0  0
   -0.2515    4.3475   21.7362 O   0  0  0  0  0  0
   -0.7590    1.7825   20.5436 O   0  0  0  0  0  0
   -3.2728    1.9982   22.6809 H   0  0  0  0  0  0
   -3.3135    1.8733   20.9342 H   0  0  0  0  0  0
   -2.6226    3.2878   21.6907 H   0  0  0  0  0  0
   -2.6144   -0.1675   20.1008 H   0  0  0  0  0  0
   -3.0578   -2.5585   20.2554 H   0  0  0  0  0  0
   -2.2538   -3.8429   22.1918 H   0  0  0  0  0  0
   -1.2988   -3.8262   24.1468 H   0  0  0  0  0  0
   -1.1899    2.4042   23.7546 H   0  0  0  0  0  0
    0.1322    4.1129   23.6233 H   0  0  0  0  0  0
    2.2353    4.4231   22.6300 H   0  0  0  0  0  0
    1.6093    2.0356   20.9206 H   0  0  0  0  0  0
    0.4885    3.6088   19.1318 H   0  0  0  0  0  0
    1.8779    2.6370   18.5230 H   0  0  0  0  0  0
    1.7971    4.3963   18.1776 H   0  0  0  0  0  0
    0.8850    5.2692   21.0223 H   0  0  0  0  0  0
    2.1329    6.0273   19.9707 H   0  0  0  0  0  0
    2.5724    5.4877   21.6213 H   0  0  0  0  0  0
    6.6236    2.7209   21.2990 H   0  0  0  0  0  0
    7.6837    1.3988   21.7100 H   0  0  0  0  0  0
    1.9816   -0.2789   25.0420 H   0  0  0  0  0  0
    2.6155    4.4028   24.8468 H   0  0  0  0  0  0
   -0.0743    3.9585   20.8764 H   0  0  0  0  0  0
   -0.7876    2.7315   20.4018 H   0  0  0  0  0  0
    3.3047    4.0091   19.9056 H   0  0  0  0  0  0
  1  2  1  0  0  0
  1 34  1  0  0  0
  1 35  1  0  0  0
  1 36  1  0  0  0
  2  3  1  0  0  0
  2 33  1  0  0  0
  2 13  1  0  0  0
  3  4  2  0  0  0
  3  9  1  0  0  0
  4  5  1  0  0  0
  4 37  1  0  0  0
  5  6  2  0  0  0
  5 38  1  0  0  0
  6  7  1  0  0  0
  6 39  1  0  0  0
  7  8  1  0  0  0
  7  9  2  0  0  0
  8 40  1  0  0  0
  9 10  1  0  0  0
 10 11  2  0  0  0
 10 12  1  0  0  0
 12 13  1  0  0  0
 12 29  2  0  0  0
 13 14  1  0  0  0
 13 41  1  0  0  0
 14 15  1  0  0  0
 14 32  1  0  0  0
 14 42  1  0  0  0
 15 16  1  0  0  0
 15 28  1  0  0  0
 15 43  1  0  0  0
 16 17  1  0  0  0
 16 20  1  0  0  0
 16 44  1  0  0  0
 17 18  1  0  0  0
 17 19  1  0  0  0
 17 57  1  0  0  0
 18 45  1  0  0  0
 18 46  1  0  0  0
 18 47  1  0  0  0
 19 48  1  0  0  0
 19 49  1  0  0  0
 19 50  1  0  0  0
 20 21  1  0  0  0
 20 22  2  0  0  0
 22 23  1  0  0  0
 22 26  1  0  0  0
 23 24  1  0  0  0
 23 25  2  0  0  0
 24 51  1  0  0  0
 24 52  1  0  0  0
 26 27  2  0  0  0
 26 28  1  0  0  0
 28 29  1  0  0  0
 28 31  1  0  0  0
 29 30  1  0  0  0
 30 53  1  0  0  0
 31 54  1  0  0  0
 32 55  1  0  0  0
 33 56  1  0  0  0
M  CHG  2  17   1  21  -1
M  END
> <s_m_entry_id>
370

> <s_m_entry_name>
Compounds-withfrags-for-validation-docking.1911

> <s_m_Source_Path>
/home/rodolpho/data/melina/maestro/glide-dock_XP_5RGK_M-PRO_VALIDATION

> <s_m_Source_File>
glide-dock_XP_5RGK_M-PRO_VALIDATION_pv.maegz

> <i_m_Source_File_Index>
370

> <CID>
Oxitetracyclin

> <Potency>
15.15

> <pIC50>
4.81959

> <Source>
https://doi.org/10.1101/2020.03.23.004580

> <smiles>
C(C1(C2=C(C(=C(C(O[H])=C2C(O[H])=C2C1(C(C1(C(N(C([H])([H])[H])C([H])([H])[H])([H])C(=O)C(=C(N([H])[H])O[H])C(=O)C1(C2=O)O[H])[H])(O[H])[H])[H])[H])[H])[H])O[H])([H])([H])[H]

> <Outcome>
Inactive

> <StandardizerResult>
Clear Stereo (ID: ClearStereo)
Wedge Clean (ID: WedgeClean)
Mesomerize (ID: Mesomerize)
Tautomerize (ID: Tautomerize)
Aromatize (ID: Aromatize)
Add Explicit Hydrogens (ID: AddExplicitH)
Neutralize (ID: Neutralize)
Clean 2D (ID: Clean2D)

> <chiral flag>
0

> <version>
0

> <i_lp_mmshare_version>
41011

> <i_f3d_flags>
0

> <s_epik_input>
W09IXWMxW2NIXVtjSF1bY0hdYyhbQ0BdMihbQ0gzXSlbT0hdKWMxQyg9TylDKD1DM1tPSF0pW0NASF0yW0NASF0oW09IXSlbQ0BASF0oW0NAQF0zNFtPSF0pW0NAQEhdKE4oW0NIM10pW0NIM10pQyg9TylbQ0BIXShDND1PKUMoPU8pW05IMl0=

> <s_epik_cmdline>
J2VwaWtfcHl0aG9uJywgJy1waHQnLCAnMC41JywgJy1waCcsICc3LjQnLCAnLXRuJywgJzgnLCAnLW1hJywgJzIwMCcsICctaW1hZScsICc8aW5maWxlLm1hZT4nLCAnLW9tYWUnLCAnPG91dGZpbGUubWFlPic=

> <r_epik_Ionization_Penalty>
0.6144

> <r_epik_Ionization_Penalty_Charging>
0.5087

> <r_epik_Ionization_Penalty_Neutral>
0.1057

> <r_epik_State_Penalty>
0.5157

> <r_epik_Charging_Adjusted_Penalty>
1.02439

> <i_epik_Tot_Q>
0

> <i_epik_Tot_abs_Q>
2

> <s_lp_Force_Field>
OPLS3

> <r_lp_Energy>
58.9018

> <b_lp_Chiralities_Consistent>
1

> <s_lp_Variant>
ligprep_COVID_compounds-withfrags-smallmolecules-forvalidation.maegz:6-38

> <i_glide_original_lignum>
90

> <s_i_glide_gridfile>
glide-grid_5RGK_M-PRO_COVID

> <i_i_glide_lignum>
90

> <r_i_docking_score>
-5.13247764497543

> <r_i_glide_ligand_efficiency>
-0.155529625605316

> <r_i_glide_ligand_efficiency_sa>
-0.498866612879019

> <r_i_glide_ligand_efficiency_ln>
-1.14143645369553

> <r_glide_XP_GScore>
-5.64818464497543

> <r_i_glide_gscore>
-5.64818464497543

> <r_i_glide_evdw>
-12.5470275878906

> <r_i_glide_ecoul>
-13.4815235137939

> <r_i_glide_energy>
-26.0285511016846

> <r_i_glide_einternal>
1.02703881263733

> <r_i_glide_emodel>
-33.7068709531722

> <r_glide_XP_HBond>
-2.08794277558842

> <i_i_glide_confnum>
1

> <i_i_glide_posenum>
5

> <r_i_glide_eff_state_penalty>
0.515707

> <i_glide_XP_PoseRank>
1

> <r_lp_tautomer_probability>


> <s_epik_Chemistry_Notes>


> <MW>


> <cLogP>


> <TPSA>


> <Rotatable Bonds>


> <Fraction sp3>


> <HBA>


> <HBD>


> <Structure ID>


> <Submission Fragments>


$$$$
ligprep_COVID_compounds-withfrags-smallmolecules-forvalidation.maegz:1
                    3D
 Structure written by MMmdl.
 43 45  0  0  1  0            999 V2000
    6.3966    3.8652   24.5835 C   0  0  0  0  0  0
    7.4892    2.8041   24.4284 C   0  0  0  0  0  0
    8.7463    3.3673   23.7561 C   0  0  0  0  0  0
    6.9875    1.6552   23.6970 N   0  0  0  0  0  0
    7.2342    0.2959   23.8361 C   0  0  0  0  0  0
    8.0102   -0.2083   24.7968 N   0  0  0  0  0  0
    7.9690   -1.5604   24.5263 C   0  0  0  0  0  0
    8.5988   -2.6454   25.1746 C   0  0  0  0  0  0
    8.4898   -3.9536   24.6586 C   0  0  0  0  0  0
    7.7301   -4.1890   23.4896 C   0  0  0  0  0  0
    7.0822   -3.1233   22.8442 C   0  0  0  0  0  0
    7.1808   -1.8234   23.3706 C   0  0  0  0  0  0
    6.6880   -0.5923   22.9705 N   0  0  0  0  0  0
    5.7989   -0.3825   21.7836 C   0  0  2  0  0  0
    6.5418    0.3367   20.6615 C   0  0  1  0  0  0
    7.1745   -0.5627   19.7697 O   0  0  0  0  0  0
    5.4429    1.2042   20.0409 C   0  0  1  0  0  0
    5.1484    0.8925   18.6887 O   0  0  0  0  0  0
    4.2227    0.9861   20.9500 C   0  0  2  0  0  0
    3.3783    2.2306   21.2374 C   0  0  0  0  0  0
    2.7748    2.6583   20.0378 O   0  0  0  0  0  0
    4.7538    0.4522   22.1517 O   0  0  0  0  0  0
    7.5749   -5.7636   22.8109 Cl  0  0  0  0  0  0
    9.3089   -5.2440   25.4638 Cl  0  0  0  0  0  0
    6.7428    4.7004   25.1930 H   0  0  0  0  0  0
    5.5123    3.4473   25.0628 H   0  0  0  0  0  0
    6.0929    4.2695   23.6200 H   0  0  0  0  0  0
    7.7627    2.4585   25.4260 H   0  0  0  0  0  0
    9.1392    4.2173   24.3127 H   0  0  0  0  0  0
    8.5378    3.7046   22.7400 H   0  0  0  0  0  0
    9.5337    2.6152   23.7042 H   0  0  0  0  0  0
    6.3566    1.8986   22.9449 H   0  0  0  0  0  0
    9.1749   -2.4662   26.0684 H   0  0  0  0  0  0
    6.5086   -3.3097   21.9506 H   0  0  0  0  0  0
    5.4136   -1.3624   21.4989 H   0  0  0  0  0  0
    7.2676    1.0100   21.0992 H   0  0  0  0  0  0
    7.8795   -0.9864   20.2482 H   0  0  0  0  0  0
    5.7592    2.2363   20.0999 H   0  0  0  0  0  0
    4.4846    1.4940   18.3831 H   0  0  0  0  0  0
    3.5763    0.2317   20.5173 H   0  0  0  0  0  0
    2.5958    1.9875   21.9559 H   0  0  0  0  0  0
    3.9749    3.0360   21.6671 H   0  0  0  0  0  0
    3.3603    3.3149   19.6591 H   0  0  0  0  0  0
  1  2  1  0  0  0
  1 25  1  0  0  0
  1 26  1  0  0  0
  1 27  1  0  0  0
  2  3  1  0  0  0
  2  4  1  0  0  0
  2 28  1  0  0  0
  3 29  1  0  0  0
  3 30  1  0  0  0
  3 31  1  0  0  0
  4  5  1  0  0  0
  4 32  1  0  0  0
  5  6  2  0  0  0
  5 13  1  0  0  0
  6  7  1  0  0  0
  7  8  2  0  0  0
  7 12  1  0  0  0
  8  9  1  0  0  0
  8 33  1  0  0  0
  9 10  2  0  0  0
  9 24  1  0  0  0
 10 11  1  0  0  0
 10 23  1  0  0  0
 11 12  2  0  0  0
 11 34  1  0  0  0
 12 13  1  0  0  0
 13 14  1  0  0  0
 14 15  1  0  0  0
 14 22  1  0  0  0
 14 35  1  0  0  0
 15 16  1  0  0  0
 15 17  1  0  0  0
 15 36  1  0  0  0
 16 37  1  0  0  0
 17 18  1  0  0  0
 17 19  1  0  0  0
 17 38  1  0  0  0
 18 39  1  0  0  0
 19 20  1  0  0  0
 19 22  1  0  0  0
 19 40  1  0  0  0
 20 21  1  0  0  0
 20 41  1  0  0  0
 20 42  1  0  0  0
 21 43  1  0  0  0
M  END
> <s_m_entry_id>
394

> <s_m_entry_name>
Compounds-withfrags-for-validation-docking.1916

> <s_m_Source_Path>
/home/rodolpho/data/melina/maestro/glide-dock_XP_5RGK_M-PRO_VALIDATION

> <s_m_Source_File>
glide-dock_XP_5RGK_M-PRO_VALIDATION_pv.maegz

> <i_m_Source_File_Index>
394

> <CID>
Maribavir

> <pIC50>
4.30103

> <Source>
https://doi.org/10.1101/2020.03.23.004580

> <smiles>
C(C(C([H])([H])[H])(N(C1=NC2=C(C(=C(C([H])=C2N1C1(C(O[H])([H])C(O[H])([H])C(C(O[H])([H])[H])([H])O1)[H])Cl)Cl)[H])[H])[H])([H])([H])[H]

> <Outcome>
Inactive

> <StandardizerResult>
Clear Stereo (ID: ClearStereo)
Wedge Clean (ID: WedgeClean)
Mesomerize (ID: Mesomerize)
Tautomerize (ID: Tautomerize)
Aromatize (ID: Aromatize)
Add Explicit Hydrogens (ID: AddExplicitH)
Neutralize (ID: Neutralize)
Clean 2D (ID: Clean2D)

> <chiral flag>
0

> <version>
0

> <i_lp_mmshare_version>
41011

> <i_f3d_flags>
0

> <s_epik_input>
W2NIXTFjKENsKWMoQ2wpW2NIXWMoYzEyKW4oYyhuMilbTkhdW0NIXShbQ0gzXSlbQ0gzXSlbQ0BASF0zW0NAQEhdKFtPSF0pW0NAQEhdKFtPSF0pW0NAQEhdKE8zKVtDSDJdW09IXQ==

> <s_epik_cmdline>
J2VwaWtfcHl0aG9uJywgJy1waHQnLCAnMC41JywgJy1waCcsICc3LjQnLCAnLXRuJywgJzgnLCAnLW1hJywgJzIwMCcsICctaW1hZScsICc8aW5maWxlLm1hZT4nLCAnLW9tYWUnLCAnPG91dGZpbGUubWFlPic=

> <r_epik_Ionization_Penalty>
0.01

> <r_epik_Ionization_Penalty_Charging>
0.0

> <r_epik_Ionization_Penalty_Neutral>
0.01

> <r_epik_State_Penalty>
0.0076

> <r_epik_Charging_Adjusted_Penalty>
0.00760364

> <i_epik_Tot_Q>
0

> <i_epik_Tot_abs_Q>
0

> <s_lp_Force_Field>
OPLS3

> <r_lp_Energy>
14.5337

> <b_lp_Chiralities_Consistent>
1

> <s_lp_Variant>
ligprep_COVID_compounds-withfrags-smallmolecules-forvalidation.maegz:1-12

> <i_glide_original_lignum>
12

> <s_i_glide_gridfile>
glide-grid_5RGK_M-PRO_COVID

> <i_i_glide_lignum>
12

> <r_i_docking_score>
-5.09923007067753

> <r_i_glide_ligand_efficiency>
-0.212467919611564

> <r_i_glide_ligand_efficiency_sa>
-0.612863530878536

> <r_i_glide_ligand_efficiency_ln>
-1.22047974433419

> <r_glide_XP_GScore>
-5.10683371067753

> <r_i_glide_gscore>
-5.10683371067753

> <r_i_glide_evdw>
-30.4300365447998

> <r_i_glide_ecoul>
-11.2673196792603

> <r_i_glide_energy>
-41.6973562240601

> <r_i_glide_einternal>
1.68009066581726

> <r_i_glide_emodel>
-49.7664205639231

> <r_glide_XP_HBond>
-1.44

> <i_i_glide_confnum>
1

> <i_i_glide_posenum>
23

> <r_i_glide_eff_state_penalty>
0.00760364

> <i_glide_XP_PoseRank>
1

> <s_epik_Chemistry_Notes>
This compound contains an acetal/aminal-like group ( X-CH(R)-Y where X, Y are N, S, or O) that may be acid/base labile, releasing an aldehyde.

> <Potency>
50.0

> <r_lp_tautomer_probability>


> <MW>


> <cLogP>


> <TPSA>


> <Rotatable Bonds>


> <Fraction sp3>


> <HBA>


> <HBD>


> <Structure ID>


> <Submission Fragments>


$$$$
ligprep_COVID_compounds-withfrags-smallmolecules-forvalidation.maegz:94
                    3D
 Structure written by MMmdl.
 46 49  0  0  1  0            999 V2000
   10.2668   -2.9966   23.7708 O   0  0  0  0  0  0
    9.3860   -3.4224   24.5194 C   0  0  0  0  0  0
    9.2204   -4.9236   24.7727 C   0  0  0  0  0  0
    7.8053   -5.3575   24.3739 C   0  0  0  0  0  0
    7.5692   -5.7632   23.0414 C   0  0  0  0  0  0
    6.3659   -6.1515   22.5708 N   0  0  0  0  0  0
    5.3202   -6.1352   23.4200 C   0  0  0  0  0  0
    5.4336   -5.7629   24.7746 C   0  0  0  0  0  0
    4.3112   -5.8040   25.6259 C   0  0  0  0  0  0
    4.4449   -5.4389   26.9782 C   0  0  0  0  0  0
    5.6970   -5.0353   27.4792 C   0  0  0  0  0  0
    6.8210   -4.9949   26.6314 C   0  0  0  0  0  0
    6.7032   -5.3635   25.2698 C   0  0  0  0  0  0
    8.5291   -2.6167   25.1603 N   0  0  0  0  0  0
    8.0509   -1.4338   24.5683 C   0  0  0  0  0  0
    8.4420   -0.1643   25.0296 C   0  0  0  0  0  0
    7.8995    0.9849   24.4202 C   0  0  0  0  0  0
    8.3759    2.5487   24.9741 Cl  0  0  0  0  0  0
    6.9584    0.8629   23.3717 C   0  0  0  0  0  0
    6.6489   -0.4134   22.8382 C   0  0  0  0  0  0
    5.9195   -0.7010   21.7024 O   0  0  0  0  0  0
    5.4425    0.2771   20.8220 C   0  0  1  0  0  0
    6.5253    1.2391   20.3152 C   0  0  0  0  0  0
    7.3058    0.4351   19.2783 C   0  0  0  0  0  0
    6.2344   -0.4937   18.7872 C   0  0  0  0  0  0
    6.3578   -1.1634   17.7708 O   0  0  0  0  0  0
    5.1750   -0.4246   19.5922 N   0  0  0  0  0  0
    7.1637   -1.5487   23.4835 C   0  0  0  0  0  0
    9.9485   -5.4696   24.1707 H   0  0  0  0  0  0
    9.4552   -5.1703   25.8078 H   0  0  0  0  0  0
    8.3749   -5.7802   22.3253 H   0  0  0  0  0  0
    4.3721   -6.4494   23.0081 H   0  0  0  0  0  0
    3.3523   -6.1304   25.2510 H   0  0  0  0  0  0
    3.5893   -5.4810   27.6373 H   0  0  0  0  0  0
    5.7978   -4.7702   28.5219 H   0  0  0  0  0  0
    7.7689   -4.7142   27.0605 H   0  0  0  0  0  0
    7.8819   -3.0816   25.7803 H   0  0  0  0  0  0
    9.1399   -0.0695   25.8478 H   0  0  0  0  0  0
    6.5176    1.7645   22.9769 H   0  0  0  0  0  0
    4.5390    0.7660   21.1884 H   0  0  0  0  0  0
    5.9748    2.0516   19.8387 H   0  0  0  0  0  0
    7.1743    1.6853   21.0556 H   0  0  0  0  0  0
    7.7269    1.0363   18.4753 H   0  0  0  0  0  0
    8.0883   -0.1609   19.7445 H   0  0  0  0  0  0
    4.3251   -0.9502   19.4489 H   0  0  0  0  0  0
    6.8999   -2.5260   23.1037 H   0  0  0  0  0  0
  1  2  2  0  0  0
  2  3  1  0  0  0
  2 14  1  0  0  0
  3  4  1  0  0  0
  3 29  1  0  0  0
  3 30  1  0  0  0
  4  5  2  0  0  0
  4 13  1  0  0  0
  5  6  1  0  0  0
  5 31  1  0  0  0
  6  7  2  0  0  0
  7  8  1  0  0  0
  7 32  1  0  0  0
  8  9  2  0  0  0
  8 13  1  0  0  0
  9 10  1  0  0  0
  9 33  1  0  0  0
 10 11  2  0  0  0
 10 34  1  0  0  0
 11 12  1  0  0  0
 11 35  1  0  0  0
 12 13  2  0  0  0
 12 36  1  0  0  0
 14 15  1  0  0  0
 14 37  1  0  0  0
 15 16  2  0  0  0
 15 28  1  0  0  0
 16 17  1  0  0  0
 16 38  1  0  0  0
 17 18  1  0  0  0
 17 19  2  0  0  0
 19 20  1  0  0  0
 19 39  1  0  0  0
 20 21  1  0  0  0
 20 28  2  0  0  0
 21 22  1  0  0  0
 22 23  1  0  0  0
 22 27  1  0  0  0
 22 40  1  0  0  0
 23 24  1  0  0  0
 23 41  1  0  0  0
 23 42  1  0  0  0
 24 25  1  0  0  0
 24 43  1  0  0  0
 24 44  1  0  0  0
 25 26  2  0  0  0
 25 27  1  0  0  0
 27 45  1  0  0  0
 28 46  1  0  0  0
M  END
> <s_m_entry_id>
397

> <s_m_entry_name>
Compounds-withfrags-for-validation-docking.1823

> <s_m_Source_Path>
/home/rodolpho/data/melina/maestro/glide-dock_XP_5RGK_M-PRO_VALIDATION

> <s_m_Source_File>
glide-dock_XP_5RGK_M-PRO_VALIDATION_pv.maegz

> <i_m_Source_File_Index>
397

> <CID>
ERI-UCB-ce40166b-6

> <Potency>
38.3738

> <pIC50>
4.41597

> <Source>
Postera

> <smiles>
O=C(Cc1cncc2ccccc12)Nc1cc(Cl)cc(OC2CCC(=O)N2)c1

> <Outcome>
Inactive

> <StandardizerResult>
Clear Stereo (ID: ClearStereo)
Wedge Clean (ID: WedgeClean)
Mesomerize (ID: Mesomerize)
Tautomerize (ID: Tautomerize)
Aromatize (ID: Aromatize)
Add Explicit Hydrogens (ID: AddExplicitH)
Neutralize (ID: Neutralize)
Clean 2D (ID: Clean2D)

> <chiral flag>
0

> <version>
0

> <i_lp_mmshare_version>
41011

> <i_f3d_flags>
0

> <s_epik_input>
W2NIXTFbY0hdW2NIXVtjSF1jKGMxMiljKFtjSF1uW2NIXTIpW0NIMl1DKD1PKVtOSF1jM1tjSF1jKENsKVtjSF1jKFtjSF0zKU9bQ0BIXTRbQ0gyXVtDSDJdQyg9TylbTkhdNA==

> <s_epik_cmdline>
J2VwaWtfcHl0aG9uJywgJy1waHQnLCAnMC41JywgJy1waCcsICc3LjQnLCAnLXRuJywgJzgnLCAnLW1hJywgJzIwMCcsICctaW1hZScsICc8aW5maWxlLm1hZT4nLCAnLW9tYWUnLCAnPG91dGZpbGUubWFlPic=

> <r_lp_tautomer_probability>
1.0

> <r_epik_Ionization_Penalty>
0.0584

> <r_epik_Ionization_Penalty_Charging>
0.0

> <r_epik_Ionization_Penalty_Neutral>
0.0584

> <r_epik_State_Penalty>
0.0505

> <r_epik_Charging_Adjusted_Penalty>
0.0504635

> <i_epik_Tot_Q>
0

> <i_epik_Tot_abs_Q>
0

> <s_lp_Force_Field>
OPLS3

> <r_lp_Energy>
39.3031

> <b_lp_Chiralities_Consistent>
1

> <s_lp_Variant>
ligprep_COVID_compounds-withfrags-smallmolecules-forvalidation.maegz:94-2

> <i_glide_original_lignum>
283

> <s_i_glide_gridfile>
glide-grid_5RGK_M-PRO_COVID

> <i_i_glide_lignum>
283

> <r_i_docking_score>
-5.09551006612734

> <r_i_glide_ligand_efficiency>
-0.181982502361691

> <r_i_glide_ligand_efficiency_sa>
-0.552606059132048

> <r_i_glide_ligand_efficiency_ln>
-1.17619333393872

> <r_glide_XP_GScore>
-5.14597356612734

> <r_i_glide_gscore>
-5.14597356612734

> <r_i_glide_evdw>
-37.4068222045898

> <r_i_glide_ecoul>
-8.00881862640381

> <r_i_glide_energy>
-45.4156408309937

> <r_i_glide_einternal>
6.82514524459839

> <r_i_glide_emodel>
-58.7229483270094

> <r_glide_XP_HBond>
-1.69889845680664

> <i_i_glide_confnum>
1

> <i_i_glide_posenum>
29

> <r_i_glide_eff_state_penalty>
0.0504635

> <i_glide_XP_PoseRank>
1

> <s_epik_Chemistry_Notes>
This compound contains an acetal/aminal-like group ( X-CH(R)-Y where X, Y are N, S, or O) that may be acid/base labile, releasing an aldehyde.

> <MW>
395.1

> <cLogP>
3.68

> <TPSA>
80.32

> <Rotatable Bonds>
5

> <Fraction sp3>
0.19

> <HBA>
4

> <HBD>
2

> <Structure ID>


> <Submission Fragments>


$$$$
ligprep_COVID_compounds-withfrags-smallmolecules-forvalidation.maegz:12
                    3D
 Structure written by MMmdl.
 64 66  0  0  1  0            999 V2000
    0.8566    3.2881   19.3882 C   0  0  0  0  0  0
    1.6505    3.6091   20.5776 N   0  0  0  0  0  0
    1.9287    5.0411   20.7161 C   0  0  0  0  0  0
    2.1730    2.6424   21.3758 C   0  0  0  0  0  0
    1.9563    1.4436   21.1795 O   0  0  0  0  0  0
    3.0810    3.0609   22.5545 C   0  0  0  0  0  0
    4.3002    2.2531   22.6068 N   0  0  0  0  0  0
    4.3715    1.0177   23.1318 C   0  0  0  0  0  0
    3.7275    0.6510   24.1159 O   0  0  0  0  0  0
    5.3763    0.0484   22.4481 C   0  0  1  0  0  0
    5.5027    0.1668   20.9250 C   0  0  0  0  0  0
    6.3879   -0.6669   20.2202 C   0  0  0  0  0  0
    6.4887   -0.5831   18.8312 C   0  0  0  0  0  0
    5.6821    0.3349   18.1621 C   0  0  0  0  0  0
    4.8017    1.1425   18.8021 N   0  0  0  0  0  0
    4.7209    1.0470   20.1539 C   0  0  0  0  0  0
    6.6915    0.0372   23.1624 N   0  0  0  0  0  0
    7.4179    1.1893   23.3852 C   0  0  0  0  0  0
    6.9574    2.3150   23.1820 O   0  0  0  0  0  0
    8.7922    1.1062   23.8468 C   0  0  0  0  0  0
    9.4359    0.1036   24.5668 C   0  0  0  0  0  0
   10.7228    0.5610   24.8535 C   0  0  0  0  0  0
   10.7973    1.8457   24.3466 C   0  0  0  0  0  0
    9.6189    2.1864   23.7660 O   0  0  0  0  0  0
    7.0307   -1.1785   23.7904 C   0  0  0  0  0  0
    7.1679   -2.3431   23.0331 C   0  0  0  0  0  0
    7.5158   -3.5372   23.6561 C   0  0  0  0  0  0
    7.7355   -3.5865   25.0429 C   0  0  0  0  0  0
    8.1190   -4.8997   25.7726 C   0  0  0  0  0  0
    6.8364   -5.6351   26.2346 C   0  0  0  0  0  0
    9.0002   -4.6700   27.0301 C   0  0  0  0  0  0
    8.9159   -5.8165   24.8113 C   0  0  0  0  0  0
    7.6006   -2.4026   25.7851 C   0  0  0  0  0  0
    7.2545   -1.2049   25.1675 C   0  0  0  0  0  0
    0.5403    2.2444   19.3531 H   0  0  0  0  0  0
    1.4336    3.4934   18.4860 H   0  0  0  0  0  0
   -0.0455    3.9003   19.3579 H   0  0  0  0  0  0
    2.3632    5.3172   21.6760 H   0  0  0  0  0  0
    1.0071    5.6144   20.6077 H   0  0  0  0  0  0
    2.6163    5.3641   19.9333 H   0  0  0  0  0  0
    3.3679    4.1056   22.4333 H   0  0  0  0  0  0
    2.5386    2.9782   23.4979 H   0  0  0  0  0  0
    5.1289    2.6593   22.1974 H   0  0  0  0  0  0
    4.9423   -0.9405   22.6112 H   0  0  0  0  0  0
    7.0036   -1.3822   20.7450 H   0  0  0  0  0  0
    7.1738   -1.2165   18.2875 H   0  0  0  0  0  0
    5.7303    0.4299   17.0872 H   0  0  0  0  0  0
    3.9957    1.7062   20.6064 H   0  0  0  0  0  0
    9.0207   -0.8546   24.8434 H   0  0  0  0  0  0
   11.4978    0.0270   25.3829 H   0  0  0  0  0  0
   11.5711    2.5991   24.3367 H   0  0  0  0  0  0
    6.9981   -2.3255   21.9663 H   0  0  0  0  0  0
    7.6074   -4.4143   23.0349 H   0  0  0  0  0  0
    7.0722   -6.5553   26.7716 H   0  0  0  0  0  0
    6.1967   -5.9153   25.3973 H   0  0  0  0  0  0
    6.2408   -5.0129   26.9045 H   0  0  0  0  0  0
    8.4926   -4.0540   27.7740 H   0  0  0  0  0  0
    9.9438   -4.1824   26.7805 H   0  0  0  0  0  0
    9.2524   -5.6114   27.5204 H   0  0  0  0  0  0
    9.2223   -6.7423   25.3006 H   0  0  0  0  0  0
    9.8216   -5.3251   24.4527 H   0  0  0  0  0  0
    8.3334   -6.1023   23.9349 H   0  0  0  0  0  0
    7.7640   -2.4026   26.8524 H   0  0  0  0  0  0
    7.1568   -0.3058   25.7584 H   0  0  0  0  0  0
  1  2  1  0  0  0
  1 35  1  0  0  0
  1 36  1  0  0  0
  1 37  1  0  0  0
  2  3  1  0  0  0
  2  4  1  0  0  0
  3 38  1  0  0  0
  3 39  1  0  0  0
  3 40  1  0  0  0
  4  5  2  0  0  0
  4  6  1  0  0  0
  6  7  1  0  0  0
  6 41  1  0  0  0
  6 42  1  0  0  0
  7  8  1  0  0  0
  7 43  1  0  0  0
  8  9  2  0  0  0
  8 10  1  0  0  0
 10 11  1  0  0  0
 10 17  1  0  0  0
 10 44  1  0  0  0
 11 12  2  0  0  0
 11 16  1  0  0  0
 12 13  1  0  0  0
 12 45  1  0  0  0
 13 14  2  0  0  0
 13 46  1  0  0  0
 14 15  1  0  0  0
 14 47  1  0  0  0
 15 16  2  0  0  0
 16 48  1  0  0  0
 17 18  1  0  0  0
 17 25  1  0  0  0
 18 19  2  0  0  0
 18 20  1  0  0  0
 20 21  2  0  0  0
 20 24  1  0  0  0
 21 22  1  0  0  0
 21 49  1  0  0  0
 22 23  2  0  0  0
 22 50  1  0  0  0
 23 24  1  0  0  0
 23 51  1  0  0  0
 25 26  2  0  0  0
 25 34  1  0  0  0
 26 27  1  0  0  0
 26 52  1  0  0  0
 27 28  2  0  0  0
 27 53  1  0  0  0
 28 29  1  0  0  0
 28 33  1  0  0  0
 29 30  1  0  0  0
 29 31  1  0  0  0
 29 32  1  0  0  0
 30 54  1  0  0  0
 30 55  1  0  0  0
 30 56  1  0  0  0
 31 57  1  0  0  0
 31 58  1  0  0  0
 31 59  1  0  0  0
 32 60  1  0  0  0
 32 61  1  0  0  0
 32 62  1  0  0  0
 33 34  2  0  0  0
 33 63  1  0  0  0
 34 64  1  0  0  0
M  END
> <s_m_entry_id>
407

> <s_m_entry_name>
Compounds-withfrags-for-validation-docking.1905

> <s_m_Source_Path>
/home/rodolpho/data/melina/maestro/glide-dock_XP_5RGK_M-PRO_VALIDATION

> <s_m_Source_File>
glide-dock_XP_5RGK_M-PRO_VALIDATION_pv.maegz

> <i_m_Source_File_Index>
407

> <CID>
ALP-POS-02c6a514-53

> <Potency>
10.9306

> <pIC50>
4.96135

> <Source>
Postera

> <smiles>
CN(C)C(=O)CNC(=O)C(c1cccnc1)N(C(=O)c1ccco1)c1ccc(C(C)(C)C)cc1

> <Outcome>
Inactive

> <StandardizerResult>
Clear Stereo (ID: ClearStereo)
Wedge Clean (ID: WedgeClean)
Mesomerize (ID: Mesomerize)
Tautomerize (ID: Tautomerize)
Aromatize (ID: Aromatize)
Add Explicit Hydrogens (ID: AddExplicitH)
Neutralize (ID: Neutralize)
Clean 2D (ID: Clean2D)

> <chiral flag>
0

> <version>
0

> <i_lp_mmshare_version>
41011

> <i_f3d_flags>
0

> <s_epik_input>
W0NIM11OKFtDSDNdKUMoPU8pW0NIMl1bTkhdQyg9TylbQ0BASF0oYzFbY0hdW2NIXVtjSF1uW2NIXTEpTihDKD1PKWMyW2NIXVtjSF1bY0hdbzIpYzNbY0hdW2NIXWMoQyhbQ0gzXSkoW0NIM10pW0NIM10pW2NIXVtjSF0z

> <s_epik_cmdline>
J2VwaWtfcHl0aG9uJywgJy1waHQnLCAnMC41JywgJy1waCcsICc3LjQnLCAnLXRuJywgJzgnLCAnLW1hJywgJzIwMCcsICctaW1hZScsICc8aW5maWxlLm1hZT4nLCAnLW9tYWUnLCAnPG91dGZpbGUubWFlPic=

> <r_lp_tautomer_probability>
1.0

> <r_epik_Ionization_Penalty>
5.0E-4

> <r_epik_Ionization_Penalty_Charging>
0.0

> <r_epik_Ionization_Penalty_Neutral>
5.0E-4

> <r_epik_State_Penalty>
0.0

> <r_epik_Charging_Adjusted_Penalty>
0.0

> <i_epik_Tot_Q>
0

> <i_epik_Tot_abs_Q>
0

> <s_lp_Force_Field>
OPLS3

> <r_lp_Energy>
71.3251

> <b_lp_Chiralities_Consistent>
1

> <s_lp_Variant>
ligprep_COVID_compounds-withfrags-smallmolecules-forvalidation.maegz:12-1

> <i_glide_original_lignum>
115

> <s_i_glide_gridfile>
glide-grid_5RGK_M-PRO_COVID

> <i_i_glide_lignum>
115

> <r_i_docking_score>
-5.08591076922193

> <r_i_glide_ligand_efficiency>
-0.149585610859468

> <r_i_glide_ligand_efficiency_sa>
-0.484599309672011

> <r_i_glide_ligand_efficiency_ln>
-1.12362034388615

> <r_glide_XP_GScore>
-5.08591076922193

> <r_i_glide_gscore>
-5.08591076922193

> <r_i_glide_evdw>
-40.4130325317383

> <r_i_glide_ecoul>
-7.53805208206177

> <r_i_glide_energy>
-47.9510846138

> <r_i_glide_einternal>
9.59447002410889

> <r_i_glide_emodel>
-65.4825899886485

> <r_glide_XP_HBond>
-0.744326036062947

> <i_i_glide_confnum>
1

> <i_i_glide_posenum>
27

> <r_i_glide_eff_state_penalty>
0.0

> <i_glide_XP_PoseRank>
1

> <MW>
462.23

> <cLogP>
3.56

> <TPSA>
95.75

> <Rotatable Bonds>
7

> <Fraction sp3>
0.31

> <HBA>
5

> <HBD>
1

> <s_epik_Chemistry_Notes>


> <Structure ID>


> <Submission Fragments>


$$$$
ligprep_COVID_compounds-withfrags-smallmolecules-forvalidation.maegz:88
                    3D
 Structure written by MMmdl.
 47 49  0  0  1  0            999 V2000
   12.2321    1.0891   22.8867 C   0  0  0  0  0  0
   12.2621    2.6075   22.9663 C   0  0  0  0  0  0
   13.4292    3.2696   22.5360 C   0  0  0  0  0  0
   13.4835    4.6732   22.5704 C   0  0  0  0  0  0
   12.4627    5.4362   22.9916 N   0  0  0  0  0  0
   11.3306    4.8139   23.3715 C   0  0  0  0  0  0
   11.1696    3.4121   23.3935 C   0  0  0  0  0  0
    9.8875    2.9361   23.7706 N   0  0  0  0  0  0
    9.5720    1.9638   24.6393 C   0  0  0  0  0  0
   10.3870    1.2550   25.2274 O   0  0  0  0  0  0
    8.0842    1.7769   24.9085 C   0  0  0  0  0  0
    7.4996    0.7076   24.0035 C   0  0  0  0  0  0
    6.7780    1.0563   22.8417 C   0  0  0  0  0  0
    6.2321    0.0460   22.0292 C   0  0  0  0  0  0
    5.3851    0.4617   20.5845 Cl  0  0  0  0  0  0
    6.3754   -1.3061   22.3963 C   0  0  0  0  0  0
    7.0619   -1.6699   23.5755 C   0  0  0  0  0  0
    7.1247   -3.0352   23.8987 N   0  0  0  0  0  0
    7.8770   -3.5726   25.0306 C   0  0  1  0  0  0
    7.0062   -4.4607   25.9373 C   0  0  0  0  0  0
    7.9202   -5.5919   26.4488 C   0  0  0  0  0  0
    9.3059   -5.2996   25.8647 C   0  0  0  0  0  0
    9.9749   -4.5576   26.7511 F   0  0  0  0  0  0
    9.9749   -6.4207   25.6168 F   0  0  0  0  0  0
    9.0150   -4.4948   24.5941 C   0  0  2  0  0  0
   10.1483   -3.7637   24.1744 O   0  0  0  0  0  0
    7.6349   -0.6480   24.3666 C   0  0  0  0  0  0
   12.4847    0.6579   23.8565 H   0  0  0  0  0  0
   12.9663    0.7254   22.1686 H   0  0  0  0  0  0
   11.2592    0.7122   22.5747 H   0  0  0  0  0  0
   14.2776    2.7063   22.1746 H   0  0  0  0  0  0
   14.3713    5.1974   22.2536 H   0  0  0  0  0  0
   10.5212    5.4640   23.6716 H   0  0  0  0  0  0
    9.1060    3.4891   23.4428 H   0  0  0  0  0  0
    7.9750    1.4815   25.9529 H   0  0  0  0  0  0
    7.5465    2.7190   24.7874 H   0  0  0  0  0  0
    6.6621    2.0936   22.5589 H   0  0  0  0  0  0
    5.9601   -2.0724   21.7591 H   0  0  0  0  0  0
    6.5844   -3.6780   23.3375 H   0  0  0  0  0  0
    8.3051   -2.8034   25.6658 H   0  0  0  0  0  0
    6.5768   -3.8826   26.7568 H   0  0  0  0  0  0
    6.1747   -4.8964   25.3820 H   0  0  0  0  0  0
    7.9448   -5.6504   27.5381 H   0  0  0  0  0  0
    7.5543   -6.5558   26.0907 H   0  0  0  0  0  0
    8.6849   -5.1614   23.7949 H   0  0  0  0  0  0
   10.7803   -4.3963   23.8590 H   0  0  0  0  0  0
    8.1728   -0.8619   25.2745 H   0  0  0  0  0  0
  1  2  1  0  0  0
  1 28  1  0  0  0
  1 29  1  0  0  0
  1 30  1  0  0  0
  2  3  2  0  0  0
  2  7  1  0  0  0
  3  4  1  0  0  0
  3 31  1  0  0  0
  4  5  2  0  0  0
  4 32  1  0  0  0
  5  6  1  0  0  0
  6  7  2  0  0  0
  6 33  1  0  0  0
  7  8  1  0  0  0
  8  9  1  0  0  0
  8 34  1  0  0  0
  9 10  2  0  0  0
  9 11  1  0  0  0
 11 12  1  0  0  0
 11 35  1  0  0  0
 11 36  1  0  0  0
 12 13  2  0  0  0
 12 27  1  0  0  0
 13 14  1  0  0  0
 13 37  1  0  0  0
 14 15  1  0  0  0
 14 16  2  0  0  0
 16 17  1  0  0  0
 16 38  1  0  0  0
 17 18  1  0  0  0
 17 27  2  0  0  0
 18 19  1  0  0  0
 18 39  1  0  0  0
 19 20  1  0  0  0
 19 25  1  0  0  0
 19 40  1  0  0  0
 20 21  1  0  0  0
 20 41  1  0  0  0
 20 42  1  0  0  0
 21 22  1  0  0  0
 21 43  1  0  0  0
 21 44  1  0  0  0
 22 23  1  0  0  0
 22 24  1  0  0  0
 22 25  1  0  0  0
 25 26  1  0  0  0
 25 45  1  0  0  0
 26 46  1  0  0  0
 27 47  1  0  0  0
M  END
> <s_m_entry_id>
420

> <s_m_entry_name>
Compounds-withfrags-for-validation-docking.1829

> <s_m_Source_Path>
/home/rodolpho/data/melina/maestro/glide-dock_XP_5RGK_M-PRO_VALIDATION

> <s_m_Source_File>
glide-dock_XP_5RGK_M-PRO_VALIDATION_pv.maegz

> <i_m_Source_File_Index>
420

> <CID>
MAT-POS-044491d2-2

> <Potency>
23.0318

> <pIC50>
4.63767

> <Source>
Postera

> <smiles>
Cc1ccncc1NC(=O)Cc1cc(Cl)cc(NC2CCC(F)(F)C2O)c1

> <Outcome>
Inactive

> <StandardizerResult>
Clear Stereo (ID: ClearStereo)
Wedge Clean (ID: WedgeClean)
Mesomerize (ID: Mesomerize)
Tautomerize (ID: Tautomerize)
Aromatize (ID: Aromatize)
Add Explicit Hydrogens (ID: AddExplicitH)
Neutralize (ID: Neutralize)
Clean 2D (ID: Clean2D)

> <chiral flag>
0

> <version>
0

> <i_lp_mmshare_version>
41011

> <i_f3d_flags>
0

> <s_epik_input>
W0NIM11jMVtjSF1bY0hdbltjSF1jMVtOSF1DKD1PKVtDSDJdYzJbY0hdYyhDbClbY0hdYyhbY0hdMilbTkhdW0NASF0oW0NASF0zW09IXSlbQ0gyXVtDSDJdQzMoRilG

> <s_epik_cmdline>
J2VwaWtfcHl0aG9uJywgJy1waHQnLCAnMC41JywgJy1waCcsICc3LjQnLCAnLXRuJywgJzgnLCAnLW1hJywgJzIwMCcsICctaW1hZScsICc8aW5maWxlLm1hZT4nLCAnLW9tYWUnLCAnPG91dGZpbGUubWFlPic=

> <r_lp_tautomer_probability>
1.0

> <r_epik_Ionization_Penalty>
0.0032

> <r_epik_Ionization_Penalty_Charging>
0.0

> <r_epik_Ionization_Penalty_Neutral>
0.0032

> <r_epik_State_Penalty>
0.0

> <r_epik_Charging_Adjusted_Penalty>
0.0

> <i_epik_Tot_Q>
0

> <i_epik_Tot_abs_Q>
0

> <s_lp_Force_Field>
OPLS3

> <r_lp_Energy>
45.3549

> <b_lp_Chiralities_Consistent>
1

> <s_lp_Variant>
ligprep_COVID_compounds-withfrags-smallmolecules-forvalidation.maegz:88-2

> <i_glide_original_lignum>
270

> <s_i_glide_gridfile>
glide-grid_5RGK_M-PRO_COVID

> <i_i_glide_lignum>
270

> <r_i_docking_score>
-5.07408628950621

> <r_i_glide_ligand_efficiency>
-0.187929121833563

> <r_i_glide_ligand_efficiency_sa>
-0.563787364881307

> <r_i_glide_ligand_efficiency_ln>
-1.18116363534674

> <r_glide_XP_GScore>
-5.07408628950621

> <r_i_glide_gscore>
-5.07408628950621

> <r_i_glide_evdw>
-38.6400146484375

> <r_i_glide_ecoul>
-7.24953746795654

> <r_i_glide_energy>
-45.889552116394

> <r_i_glide_einternal>
1.74828016757965

> <r_i_glide_emodel>
-61.2008391702578

> <r_glide_XP_HBond>
-1.77352406662735

> <i_i_glide_confnum>
1

> <i_i_glide_posenum>
20

> <r_i_glide_eff_state_penalty>
0.0

> <i_glide_XP_PoseRank>
1

> <MW>
395.12

> <cLogP>
3.8

> <TPSA>
74.25

> <Rotatable Bonds>
5

> <Fraction sp3>
0.37

> <HBA>
4

> <HBD>
3

> <s_epik_Chemistry_Notes>


> <Structure ID>


> <Submission Fragments>


$$$$
ligprep_COVID_compounds-withfrags-smallmolecules-forvalidation.maegz:4
                    3D
 Structure written by MMmdl.
 93 97  0  0  1  0            999 V2000
   -0.1683    2.2542   24.7578 C   0  0  0  0  0  0
    0.3971    1.1227   23.8769 C   0  0  0  0  0  0
    0.6967   -0.1235   24.7408 C   0  0  0  0  0  0
   -0.6393    0.7448   22.8051 C   0  0  0  0  0  0
    1.5795    1.6153   23.1603 N   0  0  0  0  0  0
    2.8007    1.9112   23.6466 C   0  0  0  0  0  0
    3.1184    1.7083   24.8176 O   0  0  0  0  0  0
    3.8371    2.5989   22.7296 C   0  0  1  0  0  0
    5.1314    1.7732   22.5681 C   0  0  0  0  0  0
    4.9588    0.6164   21.6806 N   0  0  0  0  0  0
    6.2371   -0.0853   21.5137 C   0  0  0  0  0  0
    6.7749   -0.8228   22.7316 C   0  0  0  0  0  0
    7.4358   -0.1471   23.7801 C   0  0  0  0  0  0
    7.9984   -0.8940   24.8329 C   0  0  0  0  0  0
    7.8975   -2.2968   24.7879 C   0  0  0  0  0  0
    7.3150   -2.9599   23.7698 N   0  0  0  0  0  0
    6.7750   -2.2332   22.7672 C   0  0  0  0  0  0
    4.5840    1.1312   20.3580 C   0  0  0  0  0  0
    3.2601    1.9143   20.4167 C   0  0  0  0  0  0
    3.3888    3.0363   21.3756 N   0  3  1  0  0  0
    2.3578    4.1075   21.2642 C   0  0  0  0  0  0
    2.6492    5.3561   22.1396 C   0  0  1  0  0  0
    2.1657    6.6887   21.5264 C   0  0  0  0  0  0
    3.1458    7.2704   20.4673 C   0  0  2  0  0  0
    3.7606    8.6255   20.8801 C   0  0  0  0  0  0
    4.6883    8.4891   22.0771 C   0  0  0  0  0  0
    5.9310    7.8362   21.9341 C   0  0  0  0  0  0
    6.7714    7.6536   23.0483 C   0  0  0  0  0  0
    6.3834    8.1462   24.3089 C   0  0  0  0  0  0
    5.1532    8.8169   24.4539 C   0  0  0  0  0  0
    4.3061    8.9866   23.3409 C   0  0  0  0  0  0
    2.5060    7.3529   19.0782 C   0  0  0  0  0  0
    1.4805    8.0116   18.9061 O   0  0  0  0  0  0
    3.0933    6.6358   18.1098 N   0  0  0  0  0  0
    2.4629    6.2921   16.8379 C   0  0  1  0  0  0
    2.7119    7.2374   15.6873 C   0  0  0  0  0  0
    2.7748    8.6427   15.7161 C   0  0  0  0  0  0
    3.0078    9.3236   14.5007 C   0  0  0  0  0  0
    3.1748    8.6057   13.2923 C   0  0  0  0  0  0
    3.1125    7.1947   13.2815 C   0  0  0  0  0  0
    2.8775    6.5329   14.4982 C   0  0  0  0  0  0
    2.8048    5.0461   14.7252 C   0  0  0  0  0  0
    2.9046    4.9153   16.2657 C   0  0  1  0  0  0
    4.2674    4.6367   16.5707 O   0  0  0  0  0  0
    1.9821    5.1772   23.3725 O   0  0  0  0  0  0
   -1.0894    1.9462   25.2540 H   0  0  0  0  0  0
   -0.3923    3.1445   24.1694 H   0  0  0  0  0  0
    0.5384    2.5465   25.5362 H   0  0  0  0  0  0
    1.3418    0.1047   25.5889 H   0  0  0  0  0  0
    1.1763   -0.9166   24.1706 H   0  0  0  0  0  0
   -0.2213   -0.5368   25.1578 H   0  0  0  0  0  0
   -1.5671    0.3913   23.2565 H   0  0  0  0  0  0
   -0.2693   -0.0511   22.1563 H   0  0  0  0  0  0
   -0.8925    1.5972   22.1727 H   0  0  0  0  0  0
    1.4226    1.8338   22.1902 H   0  0  0  0  0  0
    4.1417    3.4871   23.2811 H   0  0  0  0  0  0
    5.9404    2.4071   22.2032 H   0  0  0  0  0  0
    5.4296    1.4304   23.5560 H   0  0  0  0  0  0
    6.1297   -0.8206   20.7141 H   0  0  0  0  0  0
    7.0049    0.6116   21.1732 H   0  0  0  0  0  0
    7.5330    0.9284   23.7767 H   0  0  0  0  0  0
    8.4925   -0.4027   25.6575 H   0  0  0  0  0  0
    8.3150   -2.9028   25.5783 H   0  0  0  0  0  0
    6.3610   -2.8027   21.9480 H   0  0  0  0  0  0
    5.3728    1.7769   19.9635 H   0  0  0  0  0  0
    4.4775    0.3008   19.6569 H   0  0  0  0  0  0
    3.0434    2.3099   19.4231 H   0  0  0  0  0  0
    2.4325    1.2573   20.6815 H   0  0  0  0  0  0
    2.3625    4.4184   20.2183 H   0  0  0  0  0  0
    1.3552    3.7190   21.4491 H   0  0  0  0  0  0
    3.7137    5.4554   22.3504 H   0  0  0  0  0  0
    1.1621    6.5490   21.1200 H   0  0  0  0  0  0
    2.0391    7.4226   22.3230 H   0  0  0  0  0  0
    3.9748    6.5793   20.3641 H   0  0  0  0  0  0
    4.3379    9.0486   20.0555 H   0  0  0  0  0  0
    2.9728    9.3487   21.0979 H   0  0  0  0  0  0
    6.2366    7.4526   20.9715 H   0  0  0  0  0  0
    7.7138    7.1389   22.9301 H   0  0  0  0  0  0
    7.0294    8.0094   25.1638 H   0  0  0  0  0  0
    4.8559    9.1966   25.4203 H   0  0  0  0  0  0
    3.3594    9.4925   23.4628 H   0  0  0  0  0  0
    3.9235    6.1106   18.3598 H   0  0  0  0  0  0
    1.3800    6.2619   16.9730 H   0  0  0  0  0  0
    2.6426    9.1874   16.6385 H   0  0  0  0  0  0
    3.0598   10.4019   14.4938 H   0  0  0  0  0  0
    3.3578    9.1391   12.3721 H   0  0  0  0  0  0
    3.2508    6.6402   12.3635 H   0  0  0  0  0  0
    1.8324    4.6973   14.3738 H   0  0  0  0  0  0
    3.5751    4.4971   14.1849 H   0  0  0  0  0  0
    2.2928    4.1045   16.6591 H   0  0  0  0  0  0
    4.3727    4.5323   17.5174 H   0  0  0  0  0  0
    2.2225    5.8855   23.9515 H   0  0  0  0  0  0
    4.2179    3.5367   21.0473 H   0  0  0  0  0  0
  1  2  1  0  0  0
  1 46  1  0  0  0
  1 47  1  0  0  0
  1 48  1  0  0  0
  2  3  1  0  0  0
  2  4  1  0  0  0
  2  5  1  0  0  0
  3 49  1  0  0  0
  3 50  1  0  0  0
  3 51  1  0  0  0
  4 52  1  0  0  0
  4 53  1  0  0  0
  4 54  1  0  0  0
  5  6  1  0  0  0
  5 55  1  0  0  0
  6  7  2  0  0  0
  6  8  1  0  0  0
  8  9  1  0  0  0
  8 20  1  0  0  0
  8 56  1  0  0  0
  9 10  1  0  0  0
  9 57  1  0  0  0
  9 58  1  0  0  0
 10 11  1  0  0  0
 10 18  1  0  0  0
 11 12  1  0  0  0
 11 59  1  0  0  0
 11 60  1  0  0  0
 12 13  2  0  0  0
 12 17  1  0  0  0
 13 14  1  0  0  0
 13 61  1  0  0  0
 14 15  2  0  0  0
 14 62  1  0  0  0
 15 16  1  0  0  0
 15 63  1  0  0  0
 16 17  2  0  0  0
 17 64  1  0  0  0
 18 19  1  0  0  0
 18 65  1  0  0  0
 18 66  1  0  0  0
 19 20  1  0  0  0
 19 67  1  0  0  0
 19 68  1  0  0  0
 20 21  1  0  0  0
 20 93  1  0  0  0
 21 22  1  0  0  0
 21 69  1  0  0  0
 21 70  1  0  0  0
 22 23  1  0  0  0
 22 45  1  0  0  0
 22 71  1  0  0  0
 23 24  1  0  0  0
 23 72  1  0  0  0
 23 73  1  0  0  0
 24 25  1  0  0  0
 24 32  1  0  0  0
 24 74  1  0  0  0
 25 26  1  0  0  0
 25 75  1  0  0  0
 25 76  1  0  0  0
 26 27  2  0  0  0
 26 31  1  0  0  0
 27 28  1  0  0  0
 27 77  1  0  0  0
 28 29  2  0  0  0
 28 78  1  0  0  0
 29 30  1  0  0  0
 29 79  1  0  0  0
 30 31  2  0  0  0
 30 80  1  0  0  0
 31 81  1  0  0  0
 32 33  2  0  0  0
 32 34  1  0  0  0
 34 35  1  0  0  0
 34 82  1  0  0  0
 35 36  1  0  0  0
 35 43  1  0  0  0
 35 83  1  0  0  0
 36 37  2  0  0  0
 36 41  1  0  0  0
 37 38  1  0  0  0
 37 84  1  0  0  0
 38 39  2  0  0  0
 38 85  1  0  0  0
 39 40  1  0  0  0
 39 86  1  0  0  0
 40 41  2  0  0  0
 40 87  1  0  0  0
 41 42  1  0  0  0
 42 43  1  0  0  0
 42 88  1  0  0  0
 42 89  1  0  0  0
 43 44  1  0  0  0
 43 90  1  0  0  0
 44 91  1  0  0  0
 45 92  1  0  0  0
M  CHG  1  20   1
M  END
> <s_m_entry_id>
438

> <s_m_entry_name>
Compounds-withfrags-for-validation-docking.1913

> <s_m_Source_Path>
/home/rodolpho/data/melina/maestro/glide-dock_XP_5RGK_M-PRO_VALIDATION

> <s_m_Source_File>
glide-dock_XP_5RGK_M-PRO_VALIDATION_pv.maegz

> <i_m_Source_File_Index>
438

> <CID>
Indinavir

> <Potency>
43.13

> <pIC50>
4.36522

> <Source>
https://doi.org/10.1101/2020.03.23.004580

> <smiles>
C(C(C([H])([H])[H])(C([H])([H])[H])N(C(=O)C1(C([H])([H])N(C(C2=C([H])C([H])=C([H])N=C2[H])([H])[H])C([H])([H])C([H])([H])N1C(C(C(C(C(C1=C([H])C([H])=C([H])C([H])=C1[H])([H])[H])(C(=O)N(C1(C2=C(C(=C(C([H])=C2C([H])([H])C1(O[H])[H])[H])[H])[H])[H])[H])[H])([H])[H])(O[H])[H])([H])[H])[H])[H])([H])([H])[H]

> <Outcome>
Inactive

> <StandardizerResult>
Clear Stereo (ID: ClearStereo)
Wedge Clean (ID: WedgeClean)
Mesomerize (ID: Mesomerize)
Tautomerize (ID: Tautomerize)
Aromatize (ID: Aromatize)
Add Explicit Hydrogens (ID: AddExplicitH)
Neutralize (ID: Neutralize)
Clean 2D (ID: Clean2D)

> <chiral flag>
0

> <version>
0

> <i_lp_mmshare_version>
41011

> <i_f3d_flags>
0

> <s_epik_input>
W2NIXTFuW2NIXVtjSF1bY0hdYzFbQ0gyXU4oW0NIMl1bQ0BASF0yQyg9TylbTkhdQyhbQ0gzXSkoW0NIM10pW0NIM10pW0NIMl1bQ0gyXU4yW0NIMl1bQ0BIXShbT0hdKVtDSDJdW0NASF0oW0NIMl1jM1tjSF1bY0hdW2NIXVtjSF1bY0hdMylDKD1PKVtOSF1bQ0BASF00W0NASF0oW09IXSlbQ0gyXWMoYzQ1KVtjSF1bY0hdW2NIXVtjSF01

> <s_epik_cmdline>
J2VwaWtfcHl0aG9uJywgJy1waHQnLCAnMC41JywgJy1waCcsICc3LjQnLCAnLXRuJywgJzgnLCAnLW1hJywgJzIwMCcsICctaW1hZScsICc8aW5maWxlLm1hZT4nLCAnLW9tYWUnLCAnPG91dGZpbGUubWFlPic=

> <r_epik_Ionization_Penalty>
0.3395

> <r_epik_Ionization_Penalty_Charging>
0.3352

> <r_epik_Ionization_Penalty_Neutral>
0.0044

> <r_epik_State_Penalty>
0.5191

> <r_epik_Charging_Adjusted_Penalty>
0.854238

> <i_epik_Tot_Q>
1

> <i_epik_Tot_abs_Q>
1

> <s_lp_Force_Field>
OPLS3

> <r_lp_Energy>
54.1217

> <b_lp_Chiralities_Consistent>
1

> <s_lp_Variant>
ligprep_COVID_compounds-withfrags-smallmolecules-forvalidation.maegz:4-14

> <i_glide_original_lignum>
33

> <s_i_glide_gridfile>
glide-grid_5RGK_M-PRO_COVID

> <i_i_glide_lignum>
33

> <r_i_docking_score>
-5.0544425090301

> <r_i_glide_ligand_efficiency>
-0.112320944645113

> <r_i_glide_ligand_efficiency_sa>
-0.399513615455265

> <r_i_glide_ligand_efficiency_ln>
-1.05154928597277

> <r_glide_XP_GScore>
-5.5735145090301

> <r_i_glide_gscore>
-5.5735145090301

> <r_i_glide_evdw>
-32.5807495117188

> <r_i_glide_ecoul>
-19.3866329193115

> <r_i_glide_energy>
-51.9673824310303

> <r_i_glide_einternal>
8.91398334503174

> <r_i_glide_emodel>
-72.8842251202335

> <r_glide_XP_HBond>
-2.00220740384334

> <i_i_glide_confnum>
9

> <i_i_glide_posenum>
26

> <r_i_glide_eff_state_penalty>
0.519072

> <i_glide_XP_PoseRank>
1

> <r_lp_tautomer_probability>


> <s_epik_Chemistry_Notes>


> <MW>


> <cLogP>


> <TPSA>


> <Rotatable Bonds>


> <Fraction sp3>


> <HBA>


> <HBD>


> <Structure ID>


> <Submission Fragments>


$$$$
ligprep_COVID_compounds-withfrags-smallmolecules-forvalidation.maegz:62
                    3D
 Structure written by MMmdl.
 37 40  0  0  1  0            999 V2000
    8.2579   -0.8968   24.2987 O   0  0  0  0  0  0
    7.5751   -1.8404   23.8897 C   0  0  0  0  0  0
    6.4339   -1.6882   23.1837 N   0  0  0  0  0  0
    6.1428   -0.5638   22.4371 C   0  0  0  0  0  0
    5.9951    0.6407   22.9366 N   0  0  0  0  0  0
    5.7212    1.4603   21.9052 N   0  0  0  0  0  0
    5.6787    0.7846   20.7012 C   0  0  0  0  0  0
    5.4322    1.2091   19.3913 C   0  0  0  0  0  0
    5.4676    0.2309   18.3954 C   0  0  0  0  0  0
    5.7361   -1.1060   18.6854 C   0  0  0  0  0  0
    5.9834   -1.5255   19.9924 C   0  0  0  0  0  0
    5.9547   -0.5691   21.0203 C   0  0  0  0  0  0
    7.9937   -3.2736   24.1851 C   0  0  1  0  0  0
    9.5150   -3.3637   24.3302 C   0  0  0  0  0  0
    9.8983   -4.7017   24.9711 C   0  0  0  0  0  0
    9.3363   -4.8199   26.2766 O   0  0  0  0  0  0
    7.9956   -4.5299   26.4013 C   0  0  0  0  0  0
    7.3240   -4.9710   27.5588 C   0  0  0  0  0  0
    5.9556   -4.6919   27.7409 C   0  0  0  0  0  0
    5.2501   -3.9617   26.7659 C   0  0  0  0  0  0
    3.5692   -3.6184   26.9890 Cl  0  0  0  0  0  0
    5.9150   -3.5066   25.6113 C   0  0  0  0  0  0
    7.2855   -3.7831   25.4272 C   0  0  0  0  0  0
    5.7500   -2.4304   23.1889 H   0  0  0  0  0  0
    5.5736    2.4464   22.0654 H   0  0  0  0  0  0
    5.2227    2.2413   19.1519 H   0  0  0  0  0  0
    5.2819    0.5183   17.3708 H   0  0  0  0  0  0
    5.7530   -1.8294   17.8832 H   0  0  0  0  0  0
    6.1922   -2.5636   20.2046 H   0  0  0  0  0  0
    7.6680   -3.8797   23.3397 H   0  0  0  0  0  0
    9.9982   -3.2395   23.3611 H   0  0  0  0  0  0
    9.8732   -2.5533   24.9649 H   0  0  0  0  0  0
    9.5644   -5.5349   24.3528 H   0  0  0  0  0  0
   10.9824   -4.7821   25.0500 H   0  0  0  0  0  0
    7.8598   -5.5306   28.3112 H   0  0  0  0  0  0
    5.4482   -5.0380   28.6293 H   0  0  0  0  0  0
    5.3703   -2.9417   24.8693 H   0  0  0  0  0  0
  1  2  2  0  0  0
  2  3  1  0  0  0
  2 13  1  0  0  0
  3 24  1  0  0  0
  3  4  1  0  0  0
  4 12  1  0  0  0
  4  5  2  0  0  0
  5  6  1  0  0  0
  6 25  1  0  0  0
  6  7  1  0  0  0
  7  8  1  0  0  0
  7 12  2  0  0  0
  8 26  1  0  0  0
  8  9  2  0  0  0
  9 27  1  0  0  0
  9 10  1  0  0  0
 10 28  1  0  0  0
 10 11  2  0  0  0
 11 29  1  0  0  0
 11 12  1  0  0  0
 13 14  1  0  0  0
 13 23  1  0  0  0
 13 30  1  0  0  0
 14 15  1  0  0  0
 14 31  1  0  0  0
 14 32  1  0  0  0
 15 16  1  0  0  0
 15 33  1  0  0  0
 15 34  1  0  0  0
 16 17  1  0  0  0
 17 18  2  0  0  0
 17 23  1  0  0  0
 18 19  1  0  0  0
 18 35  1  0  0  0
 19 20  2  0  0  0
 19 36  1  0  0  0
 20 21  1  0  0  0
 20 22  1  0  0  0
 22 23  2  0  0  0
 22 37  1  0  0  0
M  END
> <s_m_entry_id>
439

> <s_m_entry_name>
Compounds-withfrags-for-validation-docking.1855

> <s_m_Source_Path>
/home/rodolpho/data/melina/maestro/glide-dock_XP_5RGK_M-PRO_VALIDATION

> <s_m_Source_File>
glide-dock_XP_5RGK_M-PRO_VALIDATION_pv.maegz

> <i_m_Source_File_Index>
439

> <CID>
DAR-DIA-6a508060-7

> <Potency>
99.5

> <pIC50>
4.00218

> <Source>
Postera

> <smiles>
O=C(NC1N=Nc2ccccc21)C1CCOc2ccc(Cl)cc21

> <Outcome>
Inactive

> <StandardizerResult>
Clear Stereo (ID: ClearStereo)
Wedge Clean (ID: WedgeClean)
Mesomerize (ID: Mesomerize)
Tautomerize (ID: Tautomerize)
Aromatize (ID: Aromatize)
Add Explicit Hydrogens (ID: AddExplicitH)
Neutralize (ID: Neutralize)
Clean 2D (ID: Clean2D)

> <chiral flag>
0

> <version>
0

> <i_lp_mmshare_version>
41011

> <i_f3d_flags>
0

> <s_epik_input>
W2NIXTFbY0hdYyhDbClbY0hdYyhjMTIpW0NASF0oW0NIMl1bQ0gyXU8yKUMoPU8pW05IXWMoW25IXW4zKWMoYzM0KVtjSF1bY0hdW2NIXVtjSF00

> <s_epik_cmdline>
J2VwaWtfcHl0aG9uJywgJy1waHQnLCAnMC41JywgJy1waCcsICc3LjQnLCAnLXRuJywgJzgnLCAnLW1hJywgJzIwMCcsICctaW1hZScsICc8aW5maWxlLm1hZT4nLCAnLW9tYWUnLCAnPG91dGZpbGUubWFlPic=

> <r_lp_tautomer_probability>
1.0

> <r_epik_Ionization_Penalty>
0.0

> <r_epik_Ionization_Penalty_Charging>
0.0

> <r_epik_Ionization_Penalty_Neutral>
0.0

> <r_epik_State_Penalty>
0.0

> <r_epik_Charging_Adjusted_Penalty>
0.0

> <i_epik_Tot_Q>
0

> <i_epik_Tot_abs_Q>
0

> <s_lp_Force_Field>
OPLS3

> <r_lp_Energy>
33.1442

> <b_lp_Chiralities_Consistent>
1

> <s_lp_Variant>
ligprep_COVID_compounds-withfrags-smallmolecules-forvalidation.maegz:62-2

> <i_glide_original_lignum>
235

> <s_i_glide_gridfile>
glide-grid_5RGK_M-PRO_COVID

> <i_i_glide_lignum>
235

> <r_i_docking_score>
-5.05304554978488

> <r_i_glide_ligand_efficiency>
-0.219697632599343

> <r_i_glide_ligand_efficiency_sa>
-0.624790842247823

> <r_i_glide_ligand_efficiency_ln>
-1.22187223242182

> <r_glide_XP_GScore>
-5.05304554978488

> <r_i_glide_gscore>
-5.05304554978488

> <r_i_glide_evdw>
-32.553394317627

> <r_i_glide_ecoul>
-8.10836601257324

> <r_i_glide_energy>
-40.6617603302002

> <r_i_glide_einternal>
1.01254045963287

> <r_i_glide_emodel>
-56.9696195132538

> <r_glide_XP_HBond>
-0.0265388313479557

> <i_i_glide_confnum>
1

> <i_i_glide_posenum>
16

> <r_i_glide_eff_state_penalty>
0.0

> <i_glide_XP_PoseRank>
1

> <s_epik_Chemistry_Notes>


> <MW>


> <cLogP>


> <TPSA>


> <Rotatable Bonds>


> <Fraction sp3>


> <HBA>


> <HBD>


> <Structure ID>


> <Submission Fragments>


$$$$
ligprep_COVID_compounds-withfrags-smallmolecules-forvalidation.maegz:89
                    3D
 Structure written by MMmdl.
 47 49  0  0  1  0            999 V2000
    5.0011    1.7735   22.5073 C   0  0  0  0  0  0
    5.4652    0.8092   21.4314 C   0  0  0  0  0  0
    5.3674    1.1684   20.0721 C   0  0  0  0  0  0
    5.7966    0.2560   19.0919 C   0  0  0  0  0  0
    6.2922   -0.9635   19.3868 N   0  0  0  0  0  0
    6.3735   -1.3131   20.6873 C   0  0  0  0  0  0
    5.9778   -0.4713   21.7482 C   0  0  0  0  0  0
    5.9742   -0.9639   23.0744 N   0  0  0  0  0  0
    6.9285   -0.7929   23.9975 C   0  0  0  0  0  0
    7.9729   -0.1764   23.7861 O   0  0  0  0  0  0
    6.6424   -1.3792   25.3911 C   0  0  0  0  0  0
    7.0704   -2.8314   25.5597 C   0  0  0  0  0  0
    8.4173   -3.1944   25.3566 C   0  0  0  0  0  0
    8.8300   -4.5167   25.5898 C   0  0  0  0  0  0
   10.4677   -4.9637   25.3702 Cl  0  0  0  0  0  0
    7.9163   -5.4853   26.0235 C   0  0  0  0  0  0
    6.5729   -5.1432   26.2417 C   0  0  0  0  0  0
    5.7332   -6.1637   26.7068 N   0  0  0  0  0  0
    4.7144   -5.8512   27.7022 C   0  0  1  0  0  0
    3.9488   -7.0951   28.1626 C   0  0  0  0  0  0
    3.3633   -6.7275   29.5330 C   0  0  0  0  0  0
    4.1016   -5.4614   30.0014 C   0  0  0  0  0  0
    5.2512   -5.2428   29.0115 C   0  0  1  0  0  0
    6.3849   -5.9541   29.4751 O   0  0  0  0  0  0
    6.1476   -3.8115   26.0053 C   0  0  0  0  0  0
    5.8583    2.1380   23.0750 H   0  0  0  0  0  0
    4.3089    1.2819   23.1947 H   0  0  0  0  0  0
    4.4893    2.6342   22.0759 H   0  0  0  0  0  0
    4.9801    2.1375   19.7840 H   0  0  0  0  0  0
    5.7383    0.5111   18.0449 H   0  0  0  0  0  0
    6.7420   -2.3084   20.8905 H   0  0  0  0  0  0
    5.2192   -1.6037   23.3040 H   0  0  0  0  0  0
    7.1709   -0.7817   26.1377 H   0  0  0  0  0  0
    5.5784   -1.2829   25.6121 H   0  0  0  0  0  0
    9.1397   -2.4558   25.0404 H   0  0  0  0  0  0
    8.2615   -6.4954   26.2056 H   0  0  0  0  0  0
    6.2008   -7.0561   26.8567 H   0  0  0  0  0  0
    3.9928   -5.1598   27.2651 H   0  0  0  0  0  0
    3.1846   -7.4007   27.4470 H   0  0  0  0  0  0
    4.6338   -7.9374   28.2831 H   0  0  0  0  0  0
    2.2920   -6.5330   29.4574 H   0  0  0  0  0  0
    3.4976   -7.5489   30.2385 H   0  0  0  0  0  0
    3.4198   -4.6114   29.9481 H   0  0  0  0  0  0
    4.4445   -5.5329   31.0343 H   0  0  0  0  0  0
    5.5076   -4.1871   28.9118 H   0  0  0  0  0  0
    6.2622   -6.8712   29.2703 H   0  0  0  0  0  0
    5.1184   -3.5323   26.1786 H   0  0  0  0  0  0
  1  2  1  0  0  0
  1 26  1  0  0  0
  1 27  1  0  0  0
  1 28  1  0  0  0
  2  3  2  0  0  0
  2  7  1  0  0  0
  3  4  1  0  0  0
  3 29  1  0  0  0
  4  5  2  0  0  0
  4 30  1  0  0  0
  5  6  1  0  0  0
  6  7  2  0  0  0
  6 31  1  0  0  0
  7  8  1  0  0  0
  8  9  1  0  0  0
  8 32  1  0  0  0
  9 10  2  0  0  0
  9 11  1  0  0  0
 11 12  1  0  0  0
 11 33  1  0  0  0
 11 34  1  0  0  0
 12 13  2  0  0  0
 12 25  1  0  0  0
 13 14  1  0  0  0
 13 35  1  0  0  0
 14 15  1  0  0  0
 14 16  2  0  0  0
 16 17  1  0  0  0
 16 36  1  0  0  0
 17 18  1  0  0  0
 17 25  2  0  0  0
 18 19  1  0  0  0
 18 37  1  0  0  0
 19 20  1  0  0  0
 19 23  1  0  0  0
 19 38  1  0  0  0
 20 21  1  0  0  0
 20 39  1  0  0  0
 20 40  1  0  0  0
 21 22  1  0  0  0
 21 41  1  0  0  0
 21 42  1  0  0  0
 22 23  1  0  0  0
 22 43  1  0  0  0
 22 44  1  0  0  0
 23 24  1  0  0  0
 23 45  1  0  0  0
 24 46  1  0  0  0
 25 47  1  0  0  0
M  END
> <s_m_entry_id>
443

> <s_m_entry_name>
Compounds-withfrags-for-validation-docking.1828

> <s_m_Source_Path>
/home/rodolpho/data/melina/maestro/glide-dock_XP_5RGK_M-PRO_VALIDATION

> <s_m_Source_File>
glide-dock_XP_5RGK_M-PRO_VALIDATION_pv.maegz

> <i_m_Source_File_Index>
443

> <CID>
MAT-POS-044491d2-1

> <Potency>
19.7025

> <pIC50>
4.70548

> <Source>
Postera

> <smiles>
Cc1ccncc1NC(=O)Cc1cc(Cl)cc(NC2CCCC2O)c1

> <Outcome>
Inactive

> <StandardizerResult>
Clear Stereo (ID: ClearStereo)
Wedge Clean (ID: WedgeClean)
Mesomerize (ID: Mesomerize)
Tautomerize (ID: Tautomerize)
Aromatize (ID: Aromatize)
Add Explicit Hydrogens (ID: AddExplicitH)
Neutralize (ID: Neutralize)
Clean 2D (ID: Clean2D)

> <chiral flag>
0

> <version>
0

> <i_lp_mmshare_version>
41011

> <i_f3d_flags>
0

> <s_epik_input>
W0NIM11jMVtjSF1bY0hdbltjSF1jMVtOSF1DKD1PKVtDSDJdYzJbY0hdYyhDbClbY0hdYyhbY0hdMilbTkhdW0NASF0zW0NIMl1bQ0gyXVtDSDJdW0NASF0zW09IXQ==

> <s_epik_cmdline>
J2VwaWtfcHl0aG9uJywgJy1waHQnLCAnMC41JywgJy1waCcsICc3LjQnLCAnLXRuJywgJzgnLCAnLW1hJywgJzIwMCcsICctaW1hZScsICc8aW5maWxlLm1hZT4nLCAnLW9tYWUnLCAnPG91dGZpbGUubWFlPic=

> <r_lp_tautomer_probability>
1.0

> <r_epik_Ionization_Penalty>
0.0032

> <r_epik_Ionization_Penalty_Charging>
0.0

> <r_epik_Ionization_Penalty_Neutral>
0.0032

> <r_epik_State_Penalty>
0.0

> <r_epik_Charging_Adjusted_Penalty>
0.0

> <i_epik_Tot_Q>
0

> <i_epik_Tot_abs_Q>
0

> <s_lp_Force_Field>
OPLS3

> <r_lp_Energy>
48.0061

> <b_lp_Chiralities_Consistent>
1

> <s_lp_Variant>
ligprep_COVID_compounds-withfrags-smallmolecules-forvalidation.maegz:89-2

> <i_glide_original_lignum>
274

> <s_i_glide_gridfile>
glide-grid_5RGK_M-PRO_COVID

> <i_i_glide_lignum>
274

> <r_i_docking_score>
-5.04872630492298

> <r_i_glide_ligand_efficiency>
-0.201949052196919

> <r_i_glide_ligand_efficiency_sa>
-0.590502610205483

> <r_i_glide_ligand_efficiency_ln>
-1.1966994323851

> <r_glide_XP_GScore>
-5.04872630492298

> <r_i_glide_gscore>
-5.04872630492298

> <r_i_glide_evdw>
-33.4596290588379

> <r_i_glide_ecoul>
-11.662184715271

> <r_i_glide_energy>
-45.1218137741089

> <r_i_glide_einternal>
7.27035427093506

> <r_i_glide_emodel>
-53.994743347168

> <r_glide_XP_HBond>
-1.04802403344667

> <i_i_glide_confnum>
1

> <i_i_glide_posenum>
48

> <r_i_glide_eff_state_penalty>
0.0

> <i_glide_XP_PoseRank>
1

> <MW>
359.14

> <cLogP>
3.55

> <TPSA>
74.25

> <Rotatable Bonds>
5

> <Fraction sp3>
0.37

> <HBA>
4

> <HBD>
3

> <Structure ID>
x11764

> <s_epik_Chemistry_Notes>


> <Submission Fragments>


$$$$
ligprep_COVID_compounds-withfrags-smallmolecules-forvalidation.maegz:4
                    3D
 Structure written by MMmdl.
 93 97  0  0  1  0            999 V2000
   -1.1984    2.1174   24.0493 C   0  0  0  0  0  0
    0.1575    1.4614   24.3878 C   0  0  0  0  0  0
    0.5660    1.8584   25.8168 C   0  0  0  0  0  0
    0.0684   -0.0812   24.3113 C   0  0  0  0  0  0
    1.2037    1.9608   23.4892 N   0  0  0  0  0  0
    1.3034    1.8090   22.1551 C   0  0  0  0  0  0
    0.4569    1.2185   21.4804 O   0  0  0  0  0  0
    2.5268    2.3926   21.4227 C   0  0  2  0  0  0
    3.6198    1.3335   21.2277 C   0  0  0  0  0  0
    4.4095    1.0721   22.4415 N   0  0  0  0  0  0
    5.4083   -0.0042   22.2686 C   0  0  0  0  0  0
    5.9719   -0.2273   20.8605 C   0  0  0  0  0  0
    6.3773    0.8201   20.0152 C   0  0  0  0  0  0
    6.5516    0.5712   18.6417 C   0  0  0  0  0  0
    6.2932   -0.7257   18.1686 C   0  0  0  0  0  0
    5.9745   -1.7490   18.9802 N   0  0  0  0  0  0
    5.9585   -1.5206   20.3096 C   0  0  0  0  0  0
    5.0351    2.3091   22.8923 C   0  0  0  0  0  0
    3.9816    3.4109   23.1557 C   0  0  0  0  0  0
    3.1318    3.6487   21.9590 N   0  3  2  0  0  0
    2.1543    4.7708   22.0433 C   0  0  0  0  0  0
    2.7949    6.1646   22.1966 C   0  0  1  0  0  0
    1.8326    7.3069   21.7632 C   0  0  0  0  0  0
    2.3460    8.2973   20.6799 C   0  0  1  0  0  0
    3.3054    9.4125   21.2067 C   0  0  0  0  0  0
    4.3077    8.9897   22.2767 C   0  0  0  0  0  0
    4.0614    9.2949   23.6331 C   0  0  0  0  0  0
    4.9637    8.8747   24.6287 C   0  0  0  0  0  0
    6.1117    8.1334   24.2795 C   0  0  0  0  0  0
    6.3702    7.8376   22.9274 C   0  0  0  0  0  0
    5.4843    8.2857   21.9290 C   0  0  0  0  0  0
    2.8925    7.5719   19.4345 C   0  0  0  0  0  0
    4.0617    7.7396   19.1139 O   0  0  0  0  0  0
    2.0575    6.7768   18.7415 N   0  0  0  0  0  0
    2.4180    5.7681   17.7322 C   0  0  1  0  0  0
    1.2535    5.4972   16.8103 C   0  0  0  0  0  0
   -0.0797    5.2405   17.1879 C   0  0  0  0  0  0
   -1.0331    5.0375   16.1658 C   0  0  0  0  0  0
   -0.6506    5.0770   14.8035 C   0  0  0  0  0  0
    0.6891    5.3353   14.4471 C   0  0  0  0  0  0
    1.6247    5.5509   15.4733 C   0  0  0  0  0  0
    3.0764    5.8839   15.3025 C   0  0  0  0  0  0
    3.5905    6.1154   16.7476 C   0  0  2  0  0  0
    4.7083    5.2736   16.9707 O   0  0  0  0  0  0
    3.0819    6.3444   23.5668 O   0  0  0  0  0  0
   -1.9754    1.8076   24.7512 H   0  0  0  0  0  0
   -1.5428    1.8567   23.0447 H   0  0  0  0  0  0
   -1.1285    3.2069   24.0970 H   0  0  0  0  0  0
    0.6754    2.9403   25.9173 H   0  0  0  0  0  0
    1.5160    1.4063   26.1014 H   0  0  0  0  0  0
   -0.1805    1.5349   26.5443 H   0  0  0  0  0  0
   -0.6260   -0.4707   25.0654 H   0  0  0  0  0  0
    1.0435   -0.5393   24.4887 H   0  0  0  0  0  0
   -0.2956   -0.4232   23.3405 H   0  0  0  0  0  0
    1.9583    2.4448   23.9529 H   0  0  0  0  0  0
    2.1641    2.6409   20.4232 H   0  0  0  0  0  0
    3.1836    0.3978   20.8906 H   0  0  0  0  0  0
    4.2270    1.7112   20.4087 H   0  0  0  0  0  0
    6.2347    0.1177   22.9678 H   0  0  0  0  0  0
    4.9138   -0.9262   22.5604 H   0  0  0  0  0  0
    6.4423    1.8237   20.3913 H   0  0  0  0  0  0
    6.8012    1.3742   17.9663 H   0  0  0  0  0  0
    6.3644   -0.9528   17.1167 H   0  0  0  0  0  0
    5.6608   -2.3693   20.9112 H   0  0  0  0  0  0
    5.5928    2.1230   23.8091 H   0  0  0  0  0  0
    5.7743    2.6359   22.1680 H   0  0  0  0  0  0
    3.3943    3.1830   24.0416 H   0  0  0  0  0  0
    4.5324    4.3212   23.3856 H   0  0  0  0  0  0
    1.5990    4.7667   21.1049 H   0  0  0  0  0  0
    1.4204    4.6021   22.8348 H   0  0  0  0  0  0
    3.7309    6.2050   21.6378 H   0  0  0  0  0  0
    0.9014    6.8739   21.3908 H   0  0  0  0  0  0
    1.5093    7.8785   22.6326 H   0  0  0  0  0  0
    1.4759    8.8320   20.2996 H   0  0  0  0  0  0
    3.8489    9.8863   20.3837 H   0  0  0  0  0  0
    2.6947   10.2208   21.6189 H   0  0  0  0  0  0
    3.1784    9.8492   23.9146 H   0  0  0  0  0  0
    4.7668    9.1012   25.6648 H   0  0  0  0  0  0
    6.7985    7.8070   25.0460 H   0  0  0  0  0  0
    7.2497    7.2770   22.6508 H   0  0  0  0  0  0
    5.7116    8.0607   20.9006 H   0  0  0  0  0  0
    1.0915    6.7740   19.0242 H   0  0  0  0  0  0
    2.6334    4.8363   18.2531 H   0  0  0  0  0  0
   -0.3693    5.2018   18.2273 H   0  0  0  0  0  0
   -2.0618    4.8353   16.4261 H   0  0  0  0  0  0
   -1.3874    4.9038   14.0326 H   0  0  0  0  0  0
    0.9857    5.3799   13.4103 H   0  0  0  0  0  0
    3.5694    5.0467   14.8038 H   0  0  0  0  0  0
    3.1978    6.7763   14.6859 H   0  0  0  0  0  0
    3.8971    7.1583   16.8012 H   0  0  0  0  0  0
    4.7721    5.0363   17.9159 H   0  0  0  0  0  0
    3.6020    7.1330   23.6586 H   0  0  0  0  0  0
    3.8173    3.9347   21.2613 H   0  0  0  0  0  0
  1  2  1  0  0  0
  1 46  1  0  0  0
  1 47  1  0  0  0
  1 48  1  0  0  0
  2  3  1  0  0  0
  2  4  1  0  0  0
  2  5  1  0  0  0
  3 49  1  0  0  0
  3 50  1  0  0  0
  3 51  1  0  0  0
  4 52  1  0  0  0
  4 53  1  0  0  0
  4 54  1  0  0  0
  5  6  1  0  0  0
  5 55  1  0  0  0
  6  7  2  0  0  0
  6  8  1  0  0  0
  8  9  1  0  0  0
  8 20  1  0  0  0
  8 56  1  0  0  0
  9 10  1  0  0  0
  9 57  1  0  0  0
  9 58  1  0  0  0
 10 11  1  0  0  0
 10 18  1  0  0  0
 11 12  1  0  0  0
 11 59  1  0  0  0
 11 60  1  0  0  0
 12 13  2  0  0  0
 12 17  1  0  0  0
 13 14  1  0  0  0
 13 61  1  0  0  0
 14 15  2  0  0  0
 14 62  1  0  0  0
 15 16  1  0  0  0
 15 63  1  0  0  0
 16 17  2  0  0  0
 17 64  1  0  0  0
 18 19  1  0  0  0
 18 65  1  0  0  0
 18 66  1  0  0  0
 19 20  1  0  0  0
 19 67  1  0  0  0
 19 68  1  0  0  0
 20 21  1  0  0  0
 20 93  1  0  0  0
 21 22  1  0  0  0
 21 69  1  0  0  0
 21 70  1  0  0  0
 22 23  1  0  0  0
 22 45  1  0  0  0
 22 71  1  0  0  0
 23 24  1  0  0  0
 23 72  1  0  0  0
 23 73  1  0  0  0
 24 25  1  0  0  0
 24 32  1  0  0  0
 24 74  1  0  0  0
 25 26  1  0  0  0
 25 75  1  0  0  0
 25 76  1  0  0  0
 26 27  2  0  0  0
 26 31  1  0  0  0
 27 28  1  0  0  0
 27 77  1  0  0  0
 28 29  2  0  0  0
 28 78  1  0  0  0
 29 30  1  0  0  0
 29 79  1  0  0  0
 30 31  2  0  0  0
 30 80  1  0  0  0
 31 81  1  0  0  0
 32 33  2  0  0  0
 32 34  1  0  0  0
 34 35  1  0  0  0
 34 82  1  0  0  0
 35 36  1  0  0  0
 35 43  1  0  0  0
 35 83  1  0  0  0
 36 37  2  0  0  0
 36 41  1  0  0  0
 37 38  1  0  0  0
 37 84  1  0  0  0
 38 39  2  0  0  0
 38 85  1  0  0  0
 39 40  1  0  0  0
 39 86  1  0  0  0
 40 41  2  0  0  0
 40 87  1  0  0  0
 41 42  1  0  0  0
 42 43  1  0  0  0
 42 88  1  0  0  0
 42 89  1  0  0  0
 43 44  1  0  0  0
 43 90  1  0  0  0
 44 91  1  0  0  0
 45 92  1  0  0  0
M  CHG  1  20   1
M  END
> <s_m_entry_id>
446

> <s_m_entry_name>
Compounds-withfrags-for-validation-docking.1913

> <s_m_Source_Path>
/home/rodolpho/data/melina/maestro/glide-dock_XP_5RGK_M-PRO_VALIDATION

> <s_m_Source_File>
glide-dock_XP_5RGK_M-PRO_VALIDATION_pv.maegz

> <i_m_Source_File_Index>
446

> <CID>
Indinavir

> <Potency>
43.13

> <pIC50>
4.36522

> <Source>
https://doi.org/10.1101/2020.03.23.004580

> <smiles>
C(C(C([H])([H])[H])(C([H])([H])[H])N(C(=O)C1(C([H])([H])N(C(C2=C([H])C([H])=C([H])N=C2[H])([H])[H])C([H])([H])C([H])([H])N1C(C(C(C(C(C1=C([H])C([H])=C([H])C([H])=C1[H])([H])[H])(C(=O)N(C1(C2=C(C(=C(C([H])=C2C([H])([H])C1(O[H])[H])[H])[H])[H])[H])[H])[H])([H])[H])(O[H])[H])([H])[H])[H])[H])([H])([H])[H]

> <Outcome>
Inactive

> <StandardizerResult>
Clear Stereo (ID: ClearStereo)
Wedge Clean (ID: WedgeClean)
Mesomerize (ID: Mesomerize)
Tautomerize (ID: Tautomerize)
Aromatize (ID: Aromatize)
Add Explicit Hydrogens (ID: AddExplicitH)
Neutralize (ID: Neutralize)
Clean 2D (ID: Clean2D)

> <chiral flag>
0

> <version>
0

> <i_lp_mmshare_version>
41011

> <i_f3d_flags>
0

> <s_epik_input>
W2NIXTFuW2NIXVtjSF1bY0hdYzFbQ0gyXU4oW0NIMl1bQ0BIXTJDKD1PKVtOSF1DKFtDSDNdKShbQ0gzXSlbQ0gzXSlbQ0gyXVtDSDJdTjJbQ0gyXVtDQEhdKFtPSF0pW0NIMl1bQ0BASF0oW0NIMl1jM1tjSF1bY0hdW2NIXVtjSF1bY0hdMylDKD1PKVtOSF1bQ0BASF00W0NAQEhdKFtPSF0pW0NIMl1jKGM0NSlbY0hdW2NIXVtjSF1bY0hdNQ==

> <s_epik_cmdline>
J2VwaWtfcHl0aG9uJywgJy1waHQnLCAnMC41JywgJy1waCcsICc3LjQnLCAnLXRuJywgJzgnLCAnLW1hJywgJzIwMCcsICctaW1hZScsICc8aW5maWxlLm1hZT4nLCAnLW9tYWUnLCAnPG91dGZpbGUubWFlPic=

> <r_epik_Ionization_Penalty>
0.3395

> <r_epik_Ionization_Penalty_Charging>
0.3352

> <r_epik_Ionization_Penalty_Neutral>
0.0044

> <r_epik_State_Penalty>
0.5191

> <r_epik_Charging_Adjusted_Penalty>
0.854238

> <i_epik_Tot_Q>
1

> <i_epik_Tot_abs_Q>
1

> <s_lp_Force_Field>
OPLS3

> <r_lp_Energy>
55.0267

> <b_lp_Chiralities_Consistent>
1

> <s_lp_Variant>
ligprep_COVID_compounds-withfrags-smallmolecules-forvalidation.maegz:4-22

> <i_glide_original_lignum>
41

> <s_i_glide_gridfile>
glide-grid_5RGK_M-PRO_COVID

> <i_i_glide_lignum>
41

> <r_i_docking_score>
-5.04811470743334

> <r_i_glide_ligand_efficiency>
-0.112180326831852

> <r_i_glide_ligand_efficiency_sa>
-0.399013452897418

> <r_i_glide_ligand_efficiency_ln>
-1.05023282125111

> <r_glide_XP_GScore>
-5.56718670743334

> <r_i_glide_gscore>
-5.56718670743334

> <r_i_glide_evdw>
-29.4998779296875

> <r_i_glide_ecoul>
-19.0154762268066

> <r_i_glide_energy>
-48.5153541564941

> <r_i_glide_einternal>
15.9238128662109

> <r_i_glide_emodel>
-70.3937138727499

> <r_glide_XP_HBond>
-3.01062437644911

> <i_i_glide_confnum>
4

> <i_i_glide_posenum>
24

> <r_i_glide_eff_state_penalty>
0.519072

> <i_glide_XP_PoseRank>
1

> <r_lp_tautomer_probability>


> <s_epik_Chemistry_Notes>


> <MW>


> <cLogP>


> <TPSA>


> <Rotatable Bonds>


> <Fraction sp3>


> <HBA>


> <HBD>


> <Structure ID>


> <Submission Fragments>


$$$$
ligprep_COVID_compounds-withfrags-smallmolecules-forvalidation.maegz:6
                    3D
 Structure written by MMmdl.
 56 59  0  0  1  0            999 V2000
    5.3566   -6.5561   26.6100 C   0  0  0  0  0  0
    6.2017   -5.6771   27.5503 C   0  0  1  0  0  0
    7.3170   -4.9859   26.7336 C   0  0  0  0  0  0
    8.3843   -5.7641   26.2318 C   0  0  0  0  0  0
    9.4180   -5.2054   25.4656 C   0  0  0  0  0  0
    9.4042   -3.8342   25.1859 C   0  0  0  0  0  0
    8.3699   -3.0240   25.6847 C   0  0  0  0  0  0
    8.4348   -1.6901   25.3854 O   0  0  0  0  0  0
    7.3127   -3.5896   26.4606 C   0  0  0  0  0  0
    6.2068   -2.7308   26.9705 C   0  0  0  0  0  0
    6.2912   -1.5049   26.9667 O   0  0  0  0  0  0
    5.0148   -3.4044   27.5317 C   0  0  0  0  0  0
    5.3212   -4.6570   28.3498 C   0  0  1  0  0  0
    4.0604   -5.1650   29.1211 C   0  0  1  0  0  0
    2.7606   -4.9964   28.2938 C   0  0  1  0  0  0
    1.5240   -5.7864   28.7782 C   0  0  1  0  0  0
    1.1123   -5.4159   30.1519 N   0  0  0  0  0  0
   -0.1400   -4.6695   30.2616 C   0  0  0  0  0  0
    1.0153   -6.5988   30.9987 C   0  0  0  0  0  0
    0.4086   -5.7382   27.7108 C   0  0  0  0  0  0
   -0.2209   -6.8247   27.8000 O   0  5  0  0  0  0
    0.3171   -4.6363   26.8331 C   0  0  0  0  0  0
   -0.7122   -4.6034   25.7651 C   0  0  0  0  0  0
   -1.6106   -5.5874   25.8151 N   0  0  0  0  0  0
   -0.8030   -3.7759   24.8564 O   0  0  0  0  0  0
    1.2361   -3.4501   26.9720 C   0  0  0  0  0  0
    0.9879   -2.3811   26.4108 O   0  0  0  0  0  0
    2.4681   -3.5124   27.9309 C   0  0  2  0  0  0
    3.7710   -2.8779   27.3798 C   0  0  0  0  0  0
    3.5599   -1.7074   26.7494 O   0  0  0  0  0  0
    2.1272   -2.7760   29.0965 O   0  0  0  0  0  0
    4.2551   -6.4763   29.6185 O   0  0  0  0  0  0
    6.7592   -6.5637   28.5060 O   0  0  0  0  0  0
    4.9144   -5.9723   25.8018 H   0  0  0  0  0  0
    4.5542   -7.0836   27.1218 H   0  0  0  0  0  0
    5.9720   -7.3328   26.1703 H   0  0  0  0  0  0
    8.4261   -6.8254   26.4226 H   0  0  0  0  0  0
   10.2212   -5.8278   25.0951 H   0  0  0  0  0  0
   10.2011   -3.4036   24.5978 H   0  0  0  0  0  0
    7.7158   -1.2074   25.7790 H   0  0  0  0  0  0
    5.9750   -4.3058   29.1460 H   0  0  0  0  0  0
    3.9502   -4.5485   30.0137 H   0  0  0  0  0  0
    2.9849   -5.4731   27.3383 H   0  0  0  0  0  0
    1.8790   -6.8194   28.8209 H   0  0  0  0  0  0
   -0.1395   -3.7902   29.6206 H   0  0  0  0  0  0
   -0.2871   -4.3244   31.2847 H   0  0  0  0  0  0
   -0.9992   -5.2878   29.9913 H   0  0  0  0  0  0
    1.9661   -7.1342   31.0215 H   0  0  0  0  0  0
    0.2464   -7.2813   30.6297 H   0  0  0  0  0  0
    0.7675   -6.3228   32.0230 H   0  0  0  0  0  0
   -1.4679   -6.2790   26.5535 H   0  0  0  0  0  0
   -2.3529   -5.6545   25.1408 H   0  0  0  0  0  0
    4.4052   -1.3341   26.5393 H   0  0  0  0  0  0
    2.8074   -2.8977   29.7411 H   0  0  0  0  0  0
    5.1443   -6.7406   29.3927 H   0  0  0  0  0  0
    7.1745   -7.2821   28.0264 H   0  0  0  0  0  0
  1  2  1  0  0  0
  1 34  1  0  0  0
  1 35  1  0  0  0
  1 36  1  0  0  0
  2  3  1  0  0  0
  2 33  1  0  0  0
  2 13  1  0  0  0
  3  4  2  0  0  0
  3  9  1  0  0  0
  4  5  1  0  0  0
  4 37  1  0  0  0
  5  6  2  0  0  0
  5 38  1  0  0  0
  6  7  1  0  0  0
  6 39  1  0  0  0
  7  8  1  0  0  0
  7  9  2  0  0  0
  8 40  1  0  0  0
  9 10  1  0  0  0
 10 11  2  0  0  0
 10 12  1  0  0  0
 12 13  1  0  0  0
 12 29  2  0  0  0
 13 14  1  0  0  0
 13 41  1  0  0  0
 14 15  1  0  0  0
 14 32  1  0  0  0
 14 42  1  0  0  0
 15 16  1  0  0  0
 15 28  1  0  0  0
 15 43  1  0  0  0
 16 17  1  0  0  0
 16 20  1  0  0  0
 16 44  1  0  0  0
 17 18  1  0  0  0
 17 19  1  0  0  0
 18 45  1  0  0  0
 18 46  1  0  0  0
 18 47  1  0  0  0
 19 48  1  0  0  0
 19 49  1  0  0  0
 19 50  1  0  0  0
 20 21  1  0  0  0
 20 22  2  0  0  0
 22 23  1  0  0  0
 22 26  1  0  0  0
 23 24  1  0  0  0
 23 25  2  0  0  0
 24 51  1  0  0  0
 24 52  1  0  0  0
 26 27  2  0  0  0
 26 28  1  0  0  0
 28 29  1  0  0  0
 28 31  1  0  0  0
 29 30  1  0  0  0
 30 53  1  0  0  0
 31 54  1  0  0  0
 32 55  1  0  0  0
 33 56  1  0  0  0
M  CHG  1  21  -1
M  END
> <s_m_entry_id>
449

> <s_m_entry_name>
Compounds-withfrags-for-validation-docking.1911

> <s_m_Source_Path>
/home/rodolpho/data/melina/maestro/glide-dock_XP_5RGK_M-PRO_VALIDATION

> <s_m_Source_File>
glide-dock_XP_5RGK_M-PRO_VALIDATION_pv.maegz

> <i_m_Source_File_Index>
449

> <CID>
Oxitetracyclin

> <Potency>
15.15

> <pIC50>
4.81959

> <Source>
https://doi.org/10.1101/2020.03.23.004580

> <smiles>
C(C1(C2=C(C(=C(C(O[H])=C2C(O[H])=C2C1(C(C1(C(N(C([H])([H])[H])C([H])([H])[H])([H])C(=O)C(=C(N([H])[H])O[H])C(=O)C1(C2=O)O[H])[H])(O[H])[H])[H])[H])[H])[H])O[H])([H])([H])[H]

> <Outcome>
Inactive

> <StandardizerResult>
Clear Stereo (ID: ClearStereo)
Wedge Clean (ID: WedgeClean)
Mesomerize (ID: Mesomerize)
Tautomerize (ID: Tautomerize)
Aromatize (ID: Aromatize)
Add Explicit Hydrogens (ID: AddExplicitH)
Neutralize (ID: Neutralize)
Clean 2D (ID: Clean2D)

> <chiral flag>
0

> <version>
0

> <i_lp_mmshare_version>
41011

> <i_f3d_flags>
0

> <s_epik_input>
W09IXWMxW2NIXVtjSF1bY0hdYyhbQ0BAXTIoW0NIM10pW09IXSljMUMoPU8pQyg9QzNbT0hdKVtDQEhdMltDQEhdKFtPSF0pW0NASF0oW0NAQF0zNFtPSF0pW0NAQEhdKE4oW0NIM10pW0NIM10pQyg9TylbQ0BIXShDND1PKUMoPU8pW05IMl0=

> <s_epik_cmdline>
J2VwaWtfcHl0aG9uJywgJy1waHQnLCAnMC41JywgJy1waCcsICc3LjQnLCAnLXRuJywgJzgnLCAnLW1hJywgJzIwMCcsICctaW1hZScsICc8aW5maWxlLm1hZT4nLCAnLW9tYWUnLCAnPG91dGZpbGUubWFlPic=

> <r_epik_Ionization_Penalty>
0.3646

> <r_epik_Ionization_Penalty_Charging>
0.0013

> <r_epik_Ionization_Penalty_Neutral>
0.3633

> <r_epik_State_Penalty>
0.3215

> <r_epik_Charging_Adjusted_Penalty>
0.322822

> <i_epik_Tot_Q>
-1

> <i_epik_Tot_abs_Q>
1

> <s_lp_Force_Field>
OPLS3

> <r_lp_Energy>
63.3852

> <b_lp_Chiralities_Consistent>
1

> <s_lp_Variant>
ligprep_COVID_compounds-withfrags-smallmolecules-forvalidation.maegz:6-8

> <i_glide_original_lignum>
60

> <s_i_glide_gridfile>
glide-grid_5RGK_M-PRO_COVID

> <i_i_glide_lignum>
60

> <r_i_docking_score>
-5.04259948257144

> <r_i_glide_ligand_efficiency>
-0.152806044926407

> <r_i_glide_ligand_efficiency_sa>
-0.490130634361087

> <r_i_glide_ligand_efficiency_ln>
-1.1214480157411

> <r_glide_XP_GScore>
-5.36409648257144

> <r_i_glide_gscore>
-5.36409648257144

> <r_i_glide_evdw>
-19.8802146911621

> <r_i_glide_ecoul>
-14.1802787780762

> <r_i_glide_energy>
-34.0604934692383

> <r_i_glide_einternal>
4.49935102462769

> <r_i_glide_emodel>
-34.9133702682176

> <r_glide_XP_HBond>
-2.4

> <i_i_glide_confnum>
1

> <i_i_glide_posenum>
27

> <r_i_glide_eff_state_penalty>
0.321497

> <i_glide_XP_PoseRank>
1

> <r_lp_tautomer_probability>


> <s_epik_Chemistry_Notes>


> <MW>


> <cLogP>


> <TPSA>


> <Rotatable Bonds>


> <Fraction sp3>


> <HBA>


> <HBD>


> <Structure ID>


> <Submission Fragments>


$$$$
ligprep_COVID_compounds-withfrags-smallmolecules-forvalidation.maegz:79
                    3D
 Structure written by MMmdl.
 48 51  0  0  1  0            999 V2000
   13.2907    5.1484   22.8977 C   0  0  0  0  0  0
   12.2032    4.1514   23.2421 C   0  0  0  0  0  0
   10.9752    4.5940   23.7704 C   0  0  0  0  0  0
    9.9549    3.6684   24.0651 C   0  0  0  0  0  0
   10.1402    2.2837   23.8286 C   0  0  0  0  0  0
    8.9792    1.2650   23.9038 C   0  0  2  0  0  0
    7.5431    1.8627   23.9500 C   0  0  0  0  0  0
    6.5736    1.1671   23.0259 C   0  0  0  0  0  0
    5.6209    0.1440   23.2952 C   0  0  0  0  0  0
    4.8914   -0.1637   22.2350 N   0  0  0  0  0  0
    5.3603    0.6264   21.2508 N   0  0  0  0  0  0
    4.7745    0.5632   19.9289 C   0  0  0  0  0  0
    6.3740    1.4364   21.7014 C   0  0  0  0  0  0
    9.2395    0.1259   24.9018 C   0  0  0  0  0  0
   10.0663    0.2361   25.8092 O   0  0  0  0  0  0
    8.5302   -0.9887   24.6659 N   0  0  0  0  0  0
    8.9989   -2.3002   24.8703 C   0  0  0  0  0  0
    9.9721   -2.8356   24.1707 N   0  0  0  0  0  0
   10.0163   -4.1331   24.5707 N   0  0  0  0  0  0
    9.0676   -4.4567   25.5262 C   0  0  0  0  0  0
    8.7379   -5.6384   26.2074 C   0  0  0  0  0  0
    7.6721   -5.6244   27.1262 C   0  0  0  0  0  0
    6.9419   -4.4384   27.3427 C   0  0  0  0  0  0
    7.2798   -3.2560   26.6504 C   0  0  0  0  0  0
    8.3573   -3.2416   25.7343 C   0  0  0  0  0  0
   11.4076    1.8472   23.3707 C   0  0  0  0  0  0
   12.4197    2.7721   23.0511 C   0  0  0  0  0  0
   14.2751    4.7349   23.1184 H   0  0  0  0  0  0
   13.1756    6.0685   23.4725 H   0  0  0  0  0  0
   13.2489    5.3983   21.8367 H   0  0  0  0  0  0
   10.8019    5.6473   23.9358 H   0  0  0  0  0  0
    9.0292    4.0610   24.4546 H   0  0  0  0  0  0
    9.0288    0.7148   22.9707 H   0  0  0  0  0  0
    7.1750    1.8936   24.9707 H   0  0  0  0  0  0
    7.5445    2.9007   23.6287 H   0  0  0  0  0  0
    5.4229   -0.3677   24.2254 H   0  0  0  0  0  0
    5.3383    1.1931   19.2400 H   0  0  0  0  0  0
    3.7458    0.9215   19.9673 H   0  0  0  0  0  0
    4.7865   -0.4642   19.5625 H   0  0  0  0  0  0
    6.8529    2.1585   21.0562 H   0  0  0  0  0  0
    7.7964   -0.9060   23.9767 H   0  0  0  0  0  0
   10.6689   -4.7787   24.1399 H   0  0  0  0  0  0
    9.2932   -6.5523   26.0449 H   0  0  0  0  0  0
    7.4162   -6.5304   27.6593 H   0  0  0  0  0  0
    6.1207   -4.4370   28.0445 H   0  0  0  0  0  0
    6.7174   -2.3502   26.8234 H   0  0  0  0  0  0
   11.5848    0.7965   23.1909 H   0  0  0  0  0  0
   13.3644    2.4194   22.6617 H   0  0  0  0  0  0
  1  2  1  0  0  0
  1 28  1  0  0  0
  1 29  1  0  0  0
  1 30  1  0  0  0
  2  3  2  0  0  0
  2 27  1  0  0  0
  3  4  1  0  0  0
  3 31  1  0  0  0
  4  5  2  0  0  0
  4 32  1  0  0  0
  5  6  1  0  0  0
  5 26  1  0  0  0
  6  7  1  0  0  0
  6 14  1  0  0  0
  6 33  1  0  0  0
  7  8  1  0  0  0
  7 34  1  0  0  0
  7 35  1  0  0  0
  8  9  1  0  0  0
  8 13  2  0  0  0
  9 10  2  0  0  0
  9 36  1  0  0  0
 10 11  1  0  0  0
 11 12  1  0  0  0
 11 13  1  0  0  0
 12 37  1  0  0  0
 12 38  1  0  0  0
 12 39  1  0  0  0
 13 40  1  0  0  0
 14 15  2  0  0  0
 14 16  1  0  0  0
 16 41  1  0  0  0
 16 17  1  0  0  0
 17 25  1  0  0  0
 17 18  2  0  0  0
 18 19  1  0  0  0
 19 42  1  0  0  0
 19 20  1  0  0  0
 20 21  1  0  0  0
 20 25  2  0  0  0
 21 43  1  0  0  0
 21 22  2  0  0  0
 22 44  1  0  0  0
 22 23  1  0  0  0
 23 45  1  0  0  0
 23 24  2  0  0  0
 24 46  1  0  0  0
 24 25  1  0  0  0
 26 27  2  0  0  0
 26 47  1  0  0  0
 27 48  1  0  0  0
M  END
> <s_m_entry_id>
450

> <s_m_entry_name>
Compounds-withfrags-for-validation-docking.1838

> <s_m_Source_Path>
/home/rodolpho/data/melina/maestro/glide-dock_XP_5RGK_M-PRO_VALIDATION

> <s_m_Source_File>
glide-dock_XP_5RGK_M-PRO_VALIDATION_pv.maegz

> <i_m_Source_File_Index>
450

> <CID>
ALP-POS-a3de0cb1-5

> <Potency>
99.5

> <pIC50>
4.00218

> <Source>
Postera

> <smiles>
Cc1ccc(C(Cc2cnn(C)c2)C(=O)Nc2n[nH]c3ccccc23)cc1

> <Outcome>
Inactive

> <StandardizerResult>
Clear Stereo (ID: ClearStereo)
Wedge Clean (ID: WedgeClean)
Mesomerize (ID: Mesomerize)
Tautomerize (ID: Tautomerize)
Aromatize (ID: Aromatize)
Add Explicit Hydrogens (ID: AddExplicitH)
Neutralize (ID: Neutralize)
Clean 2D (ID: Clean2D)

> <chiral flag>
0

> <version>
0

> <i_lp_mmshare_version>
41011

> <i_f3d_flags>
0

> <s_epik_input>
W0NIM11uKFtjSF0xKW5bY0hdYzFbQ0gyXVtDQEBIXShjKFtjSF1bY0hdMilbY0hdW2NIXWMyW0NIM10pQyg9TylbTkhdYyhbbkhdbjMpYyhjMzQpW2NIXVtjSF1bY0hdW2NIXTQ=

> <s_epik_cmdline>
J2VwaWtfcHl0aG9uJywgJy1waHQnLCAnMC41JywgJy1waCcsICc3LjQnLCAnLXRuJywgJzgnLCAnLW1hJywgJzIwMCcsICctaW1hZScsICc8aW5maWxlLm1hZT4nLCAnLW9tYWUnLCAnPG91dGZpbGUubWFlPic=

> <r_lp_tautomer_probability>
1.0

> <r_epik_Ionization_Penalty>
1.0E-4

> <r_epik_Ionization_Penalty_Charging>
0.0

> <r_epik_Ionization_Penalty_Neutral>
1.0E-4

> <r_epik_State_Penalty>
0.0

> <r_epik_Charging_Adjusted_Penalty>
0.0

> <i_epik_Tot_Q>
0

> <i_epik_Tot_abs_Q>
0

> <s_lp_Force_Field>
OPLS3

> <r_lp_Energy>
28.7578

> <b_lp_Chiralities_Consistent>
1

> <s_lp_Variant>
ligprep_COVID_compounds-withfrags-smallmolecules-forvalidation.maegz:79-2

> <i_glide_original_lignum>
259

> <s_i_glide_gridfile>
glide-grid_5RGK_M-PRO_COVID

> <i_i_glide_lignum>
259

> <r_i_docking_score>
-5.04217962487133

> <r_i_glide_ligand_efficiency>
-0.186747393513753

> <r_i_glide_ligand_efficiency_sa>
-0.56024217992577

> <r_i_glide_ligand_efficiency_ln>
-1.17373628984221

> <r_glide_XP_GScore>
-5.04217962487133

> <r_i_glide_gscore>
-5.04217962487133

> <r_i_glide_evdw>
-35.8267784118652

> <r_i_glide_ecoul>
-11.5851354598999

> <r_i_glide_energy>
-47.4119138717651

> <r_i_glide_einternal>
5.18722772598267

> <r_i_glide_emodel>
-60.9432588856138

> <r_glide_XP_HBond>
-0.963996327157628

> <i_i_glide_confnum>
2

> <i_i_glide_posenum>
1

> <r_i_glide_eff_state_penalty>
0.0

> <i_glide_XP_PoseRank>
1

> <MW>
359.17

> <cLogP>
3.57

> <TPSA>
75.6

> <Rotatable Bonds>
5

> <Fraction sp3>
0.19

> <HBA>
4

> <HBD>
2

> <s_epik_Chemistry_Notes>


> <Structure ID>


> <Submission Fragments>


$$$$
ligprep_COVID_compounds-withfrags-smallmolecules-forvalidation.maegz:91
                    3D
 Structure written by MMmdl.
 42 44  0  0  1  0            999 V2000
   10.2145   -4.4056   25.2790 C   0  0  0  0  0  0
    8.9279   -4.5796   24.4792 C   0  0  0  0  0  0
    8.7331   -5.7654   23.7613 C   0  0  0  0  0  0
    7.5606   -5.9244   23.0253 C   0  0  0  0  0  0
    6.5943   -4.9773   22.9676 N   0  0  0  0  0  0
    6.7872   -3.8306   23.6662 C   0  0  0  0  0  0
    7.9332   -3.5810   24.4449 C   0  0  0  0  0  0
    8.1552   -2.3929   25.1750 N   0  0  0  0  0  0
    9.0379   -1.3930   24.9599 C   0  0  0  0  0  0
    9.9871   -1.4327   24.1773 O   0  0  0  0  0  0
    8.7988   -0.1148   25.7735 C   0  0  0  0  0  0
    9.3465    1.1091   25.0494 C   0  0  0  0  0  0
   10.5874    1.0540   24.4088 C   0  0  0  0  0  0
   11.0942    2.1819   23.7651 C   0  0  0  0  0  0
   12.6246    2.1080   22.9709 Cl  0  0  0  0  0  0
   10.3649    3.3708   23.7650 C   0  0  0  0  0  0
    9.1264    3.4507   24.4055 C   0  0  0  0  0  0
    8.4809    4.6714   24.3609 O   0  0  0  0  0  0
    9.0138    5.7166   23.5519 C   0  0  0  0  0  0
   10.5057    5.8030   23.7821 C   0  0  0  0  0  0
   11.0746    6.4195   24.7943 N   0  0  0  0  0  0
   12.3749    6.2328   24.6289 C   0  0  0  0  0  0
   12.6539    5.4766   23.5002 C   0  0  0  0  0  0
   11.4270    5.2015   22.9638 N   0  0  0  0  0  0
    8.6227    2.3066   25.0479 C   0  0  0  0  0  0
   10.7605   -3.5260   24.9359 H   0  0  0  0  0  0
   10.8770   -5.2666   25.1802 H   0  0  0  0  0  0
    9.9891   -4.2795   26.3385 H   0  0  0  0  0  0
    9.4743   -6.5511   23.7698 H   0  0  0  0  0  0
    7.3831   -6.8287   22.4618 H   0  0  0  0  0  0
    5.9854   -3.1181   23.5616 H   0  0  0  0  0  0
    7.5478   -2.2829   25.9738 H   0  0  0  0  0  0
    7.7285    0.0011   25.9532 H   0  0  0  0  0  0
    9.2629   -0.1985   26.7583 H   0  0  0  0  0  0
   11.1596    0.1373   24.4133 H   0  0  0  0  0  0
   10.7643    4.2421   23.2664 H   0  0  0  0  0  0
    8.8020    5.5091   22.5013 H   0  0  0  0  0  0
    8.5359    6.6693   23.7884 H   0  0  0  0  0  0
   13.1002    6.6371   25.3199 H   0  0  0  0  0  0
   13.5687    5.1210   23.0498 H   0  0  0  0  0  0
   11.2359    4.6609   22.1325 H   0  0  0  0  0  0
    7.6708    2.3325   25.5563 H   0  0  0  0  0  0
  1  2  1  0  0  0
  1 26  1  0  0  0
  1 27  1  0  0  0
  1 28  1  0  0  0
  2  3  2  0  0  0
  2  7  1  0  0  0
  3  4  1  0  0  0
  3 29  1  0  0  0
  4  5  2  0  0  0
  4 30  1  0  0  0
  5  6  1  0  0  0
  6  7  2  0  0  0
  6 31  1  0  0  0
  7  8  1  0  0  0
  8  9  1  0  0  0
  8 32  1  0  0  0
  9 10  2  0  0  0
  9 11  1  0  0  0
 11 12  1  0  0  0
 11 33  1  0  0  0
 11 34  1  0  0  0
 12 13  2  0  0  0
 12 25  1  0  0  0
 13 14  1  0  0  0
 13 35  1  0  0  0
 14 15  1  0  0  0
 14 16  2  0  0  0
 16 17  1  0  0  0
 16 36  1  0  0  0
 17 18  1  0  0  0
 17 25  2  0  0  0
 18 19  1  0  0  0
 19 20  1  0  0  0
 19 37  1  0  0  0
 19 38  1  0  0  0
 20 21  2  0  0  0
 20 24  1  0  0  0
 21 22  1  0  0  0
 22 23  2  0  0  0
 22 39  1  0  0  0
 23 24  1  0  0  0
 23 40  1  0  0  0
 24 41  1  0  0  0
 25 42  1  0  0  0
M  END
> <s_m_entry_id>
451

> <s_m_entry_name>
Compounds-withfrags-for-validation-docking.1826

> <s_m_Source_Path>
/home/rodolpho/data/melina/maestro/glide-dock_XP_5RGK_M-PRO_VALIDATION

> <s_m_Source_File>
glide-dock_XP_5RGK_M-PRO_VALIDATION_pv.maegz

> <i_m_Source_File_Index>
451

> <CID>
RAL-THA-6b94ceba-1

> <Potency>
99.5

> <pIC50>
4.00218

> <Source>
Postera

> <smiles>
Cc1ccncc1NC(=O)Cc1cc(Cl)cc(OCc2ncc[nH]2)c1

> <Outcome>
Inactive

> <StandardizerResult>
Clear Stereo (ID: ClearStereo)
Wedge Clean (ID: WedgeClean)
Mesomerize (ID: Mesomerize)
Tautomerize (ID: Tautomerize)
Aromatize (ID: Aromatize)
Add Explicit Hydrogens (ID: AddExplicitH)
Neutralize (ID: Neutralize)
Clean 2D (ID: Clean2D)

> <chiral flag>
0

> <version>
0

> <i_lp_mmshare_version>
41011

> <i_f3d_flags>
0

> <s_epik_input>
W0NIM11jMVtjSF1bY0hdbltjSF1jMVtOSF1DKD1PKVtDSDJdYzJbY0hdYyhDbClbY0hdYyhbY0hdMilPW0NIMl1jM25bY0hdW2NIXVtuSF0z

> <s_epik_cmdline>
J2VwaWtfcHl0aG9uJywgJy1waHQnLCAnMC41JywgJy1waCcsICc3LjQnLCAnLXRuJywgJzgnLCAnLW1hJywgJzIwMCcsICctaW1hZScsICc8aW5maWxlLm1hZT4nLCAnLW9tYWUnLCAnPG91dGZpbGUubWFlPic=

> <r_lp_tautomer_probability>
0.5

> <r_epik_Ionization_Penalty>
0.0457

> <r_epik_Ionization_Penalty_Charging>
0.0425

> <r_epik_Ionization_Penalty_Neutral>
0.0032

> <r_epik_State_Penalty>
0.0359

> <r_epik_Charging_Adjusted_Penalty>
0.0783624

> <i_epik_Tot_Q>
0

> <i_epik_Tot_abs_Q>
0

> <s_lp_Force_Field>
OPLS3

> <r_lp_Energy>
34.4603

> <b_lp_Chiralities_Consistent>
1

> <s_lp_Variant>
ligprep_COVID_compounds-withfrags-smallmolecules-forvalidation.maegz:91-1

> <i_glide_original_lignum>
279

> <s_i_glide_gridfile>
glide-grid_5RGK_M-PRO_COVID

> <i_i_glide_lignum>
279

> <r_i_docking_score>
-5.04201190651547

> <r_i_glide_ligand_efficiency>
-0.201680476260619

> <r_i_glide_ligand_efficiency_sa>
-0.589717289404526

> <r_i_glide_ligand_efficiency_ln>
-1.19510791874823

> <r_glide_XP_GScore>
-5.07789540651547

> <r_i_glide_gscore>
-5.07789540651547

> <r_i_glide_evdw>
-36.2034072875977

> <r_i_glide_ecoul>
-8.91252326965332

> <r_i_glide_energy>
-45.115930557251

> <r_i_glide_einternal>
9.29074764251709

> <r_i_glide_emodel>
-59.5770402551687

> <r_glide_XP_HBond>
-0.9975

> <i_i_glide_confnum>
1

> <i_i_glide_posenum>
26

> <r_i_glide_eff_state_penalty>
0.0358835

> <i_glide_XP_PoseRank>
1

> <MW>
356.1

> <cLogP>
3.53

> <TPSA>
79.9

> <Rotatable Bonds>
6

> <Fraction sp3>
0.17

> <HBA>
4

> <HBD>
2

> <s_epik_Chemistry_Notes>


> <Structure ID>


> <Submission Fragments>


$$$$
ligprep_COVID_compounds-withfrags-smallmolecules-forvalidation.maegz:1
                    3D
 Structure written by MMmdl.
 43 45  0  0  1  0            999 V2000
    9.0034    3.6474   23.0681 C   0  0  0  0  0  0
    7.7632    3.2927   23.9134 C   0  0  0  0  0  0
    8.1462    3.0789   25.3866 C   0  0  0  0  0  0
    7.0327    2.1387   23.3987 N   0  0  0  0  0  0
    7.2799    0.8174   23.6915 C   0  0  0  0  0  0
    7.9747    0.4005   24.7207 N   0  0  0  0  0  0
    7.9915   -0.9590   24.6016 C   0  0  0  0  0  0
    8.5950   -1.9056   25.4388 C   0  0  0  0  0  0
    8.4830   -3.2563   25.1062 C   0  0  0  0  0  0
    7.7839   -3.6603   23.9596 C   0  0  0  0  0  0
    7.1733   -2.7335   23.1099 C   0  0  0  0  0  0
    7.2865   -1.3790   23.4485 C   0  0  0  0  0  0
    6.8264   -0.2035   22.8687 N   0  0  0  0  0  0
    6.0464   -0.0900   21.6528 C   0  0  1  0  0  0
    4.5753    0.2227   21.9222 C   0  0  1  0  0  0
    4.4345    0.9135   23.1433 O   0  0  0  0  0  0
    4.1638    1.1221   20.7623 C   0  0  1  0  0  0
    3.6904    2.3793   21.1905 O   0  0  0  0  0  0
    5.4316    1.2539   19.9198 C   0  0  2  0  0  0
    5.4594    0.2020   18.8146 C   0  0  0  0  0  0
    6.3273    0.5879   17.7689 O   0  0  0  0  0  0
    6.4777    0.9975   20.8464 O   0  0  0  0  0  0
    7.6512   -5.3362   23.5515 Cl  0  0  0  0  0  0
    9.2324   -4.4170   26.1474 Cl  0  0  0  0  0  0
    9.5251    4.5120   23.4797 H   0  0  0  0  0  0
    8.7393    3.8968   22.0405 H   0  0  0  0  0  0
    9.7129    2.8194   23.0350 H   0  0  0  0  0  0
    7.0752    4.1390   23.8791 H   0  0  0  0  0  0
    8.6286    3.9651   25.8004 H   0  0  0  0  0  0
    8.8355    2.2415   25.5048 H   0  0  0  0  0  0
    7.2671    2.8742   25.9993 H   0  0  0  0  0  0
    6.6858    2.3319   22.4708 H   0  0  0  0  0  0
    9.1363   -1.5988   26.3218 H   0  0  0  0  0  0
    6.6404   -3.0587   22.2285 H   0  0  0  0  0  0
    6.1483   -1.0207   21.0947 H   0  0  0  0  0  0
    3.9756   -0.6855   21.9832 H   0  0  0  0  0  0
    4.8766    1.7624   23.0684 H   0  0  0  0  0  0
    3.3706    0.6476   20.1846 H   0  0  0  0  0  0
    4.2660    3.0607   20.8361 H   0  0  0  0  0  0
    5.5299    2.2361   19.4575 H   0  0  0  0  0  0
    5.8082   -0.7534   19.2081 H   0  0  0  0  0  0
    4.4625    0.0431   18.4017 H   0  0  0  0  0  0
    6.0688    1.4601   17.4622 H   0  0  0  0  0  0
  1  2  1  0  0  0
  1 25  1  0  0  0
  1 26  1  0  0  0
  1 27  1  0  0  0
  2  3  1  0  0  0
  2  4  1  0  0  0
  2 28  1  0  0  0
  3 29  1  0  0  0
  3 30  1  0  0  0
  3 31  1  0  0  0
  4  5  1  0  0  0
  4 32  1  0  0  0
  5  6  2  0  0  0
  5 13  1  0  0  0
  6  7  1  0  0  0
  7  8  2  0  0  0
  7 12  1  0  0  0
  8  9  1  0  0  0
  8 33  1  0  0  0
  9 10  2  0  0  0
  9 24  1  0  0  0
 10 11  1  0  0  0
 10 23  1  0  0  0
 11 12  2  0  0  0
 11 34  1  0  0  0
 12 13  1  0  0  0
 13 14  1  0  0  0
 14 15  1  0  0  0
 14 22  1  0  0  0
 14 35  1  0  0  0
 15 16  1  0  0  0
 15 17  1  0  0  0
 15 36  1  0  0  0
 16 37  1  0  0  0
 17 18  1  0  0  0
 17 19  1  0  0  0
 17 38  1  0  0  0
 18 39  1  0  0  0
 19 20  1  0  0  0
 19 22  1  0  0  0
 19 40  1  0  0  0
 20 21  1  0  0  0
 20 41  1  0  0  0
 20 42  1  0  0  0
 21 43  1  0  0  0
M  END
> <s_m_entry_id>
454

> <s_m_entry_name>
Compounds-withfrags-for-validation-docking.1916

> <s_m_Source_Path>
/home/rodolpho/data/melina/maestro/glide-dock_XP_5RGK_M-PRO_VALIDATION

> <s_m_Source_File>
glide-dock_XP_5RGK_M-PRO_VALIDATION_pv.maegz

> <i_m_Source_File_Index>
454

> <CID>
Maribavir

> <pIC50>
4.30103

> <Source>
https://doi.org/10.1101/2020.03.23.004580

> <smiles>
C(C(C([H])([H])[H])(N(C1=NC2=C(C(=C(C([H])=C2N1C1(C(O[H])([H])C(O[H])([H])C(C(O[H])([H])[H])([H])O1)[H])Cl)Cl)[H])[H])[H])([H])([H])[H]

> <Outcome>
Inactive

> <StandardizerResult>
Clear Stereo (ID: ClearStereo)
Wedge Clean (ID: WedgeClean)
Mesomerize (ID: Mesomerize)
Tautomerize (ID: Tautomerize)
Aromatize (ID: Aromatize)
Add Explicit Hydrogens (ID: AddExplicitH)
Neutralize (ID: Neutralize)
Clean 2D (ID: Clean2D)

> <chiral flag>
0

> <version>
0

> <i_lp_mmshare_version>
41011

> <i_f3d_flags>
0

> <s_epik_input>
W2NIXTFjKENsKWMoQ2wpW2NIXWMoYzEyKW4oYyhuMilbTkhdW0NIXShbQ0gzXSlbQ0gzXSlbQ0BIXTNbQ0BASF0oW09IXSlbQ0BASF0oW09IXSlbQ0BASF0oTzMpW0NIMl1bT0hd

> <s_epik_cmdline>
J2VwaWtfcHl0aG9uJywgJy1waHQnLCAnMC41JywgJy1waCcsICc3LjQnLCAnLXRuJywgJzgnLCAnLW1hJywgJzIwMCcsICctaW1hZScsICc8aW5maWxlLm1hZT4nLCAnLW9tYWUnLCAnPG91dGZpbGUubWFlPic=

> <r_epik_Ionization_Penalty>
0.01

> <r_epik_Ionization_Penalty_Charging>
0.0

> <r_epik_Ionization_Penalty_Neutral>
0.01

> <r_epik_State_Penalty>
0.0076

> <r_epik_Charging_Adjusted_Penalty>
0.00760364

> <i_epik_Tot_Q>
0

> <i_epik_Tot_abs_Q>
0

> <s_lp_Force_Field>
OPLS3

> <r_lp_Energy>
17.8338

> <b_lp_Chiralities_Consistent>
1

> <s_lp_Variant>
ligprep_COVID_compounds-withfrags-smallmolecules-forvalidation.maegz:1-11

> <i_glide_original_lignum>
11

> <s_i_glide_gridfile>
glide-grid_5RGK_M-PRO_COVID

> <i_i_glide_lignum>
11

> <r_i_docking_score>
-5.0385984287508

> <r_i_glide_ligand_efficiency>
-0.20994160119795

> <r_i_glide_ligand_efficiency_sa>
-0.605576367593267

> <r_i_glide_ligand_efficiency_ln>
-1.20596781021636

> <r_glide_XP_GScore>
-5.0462020687508

> <r_i_glide_gscore>
-5.0462020687508

> <r_i_glide_evdw>
-28.2275218963623

> <r_i_glide_ecoul>
-6.95041751861572

> <r_i_glide_energy>
-35.177939414978

> <r_i_glide_einternal>
3.685142993927

> <r_i_glide_emodel>
-46.8783356376673

> <r_glide_XP_HBond>
-1.44

> <i_i_glide_confnum>
1

> <i_i_glide_posenum>
2

> <r_i_glide_eff_state_penalty>
0.00760364

> <i_glide_XP_PoseRank>
1

> <s_epik_Chemistry_Notes>
This compound contains an acetal/aminal-like group ( X-CH(R)-Y where X, Y are N, S, or O) that may be acid/base labile, releasing an aldehyde.

> <Potency>
50.0

> <r_lp_tautomer_probability>


> <MW>


> <cLogP>


> <TPSA>


> <Rotatable Bonds>


> <Fraction sp3>


> <HBA>


> <HBD>


> <Structure ID>


> <Submission Fragments>


$$$$
ligprep_COVID_compounds-withfrags-smallmolecules-forvalidation.maegz:4
                    3D
 Structure written by MMmdl.
 93 97  0  0  1  0            999 V2000
    7.3179    0.6314   19.3024 C   0  0  0  0  0  0
    5.9908    0.0089   19.7250 C   0  0  0  0  0  0
    4.8452    0.9911   19.3904 C   0  0  0  0  0  0
    5.8007   -1.3151   18.9630 C   0  0  0  0  0  0
    6.1693   -0.2758   21.1526 N   0  0  0  0  0  0
    5.6176    0.2680   22.2587 C   0  0  0  0  0  0
    4.5945    0.9473   22.2635 O   0  0  0  0  0  0
    6.3624    0.0348   23.5903 C   0  0  1  0  0  0
    7.0076   -1.3835   23.6154 C   0  0  0  0  0  0
    7.8738   -1.5977   24.7753 N   0  0  0  0  0  0
    8.4132   -2.9598   24.7713 C   0  0  0  0  0  0
    7.4611   -3.9718   25.3795 C   0  0  0  0  0  0
    7.5935   -4.3366   26.7368 C   0  0  0  0  0  0
    6.6938   -5.2695   27.2819 C   0  0  0  0  0  0
    5.6976   -5.8065   26.4448 C   0  0  0  0  0  0
    5.5568   -5.4716   25.1428 N   0  0  0  0  0  0
    6.4350   -4.5846   24.6251 C   0  0  0  0  0  0
    8.9431   -0.6140   24.6908 C   0  0  0  0  0  0
    8.3218    0.7652   24.9259 C   0  0  0  0  0  0
    7.3233    1.1609   23.8882 N   0  3  2  0  0  0
    6.6326    2.4318   24.3129 C   0  0  0  0  0  0
    7.0712    3.7219   23.6323 C   0  0  2  0  0  0
    8.2911    4.3786   24.2968 C   0  0  0  0  0  0
    9.0373    5.4332   23.4487 C   0  0  2  0  0  0
   10.5208    5.5507   23.9040 C   0  0  0  0  0  0
   11.4546    4.4847   23.3257 C   0  0  0  0  0  0
   11.4266    3.1413   23.7706 C   0  0  0  0  0  0
   12.2750    2.1710   23.2213 C   0  0  0  0  0  0
   13.1748    2.5408   22.2155 C   0  0  0  0  0  0
   13.2373    3.8708   21.7682 C   0  0  0  0  0  0
   12.3845    4.8362   22.3243 C   0  0  0  0  0  0
    8.2950    6.7851   23.5137 C   0  0  0  0  0  0
    8.5374    7.5819   24.4193 O   0  0  0  0  0  0
    7.3649    7.0145   22.5712 N   0  0  0  0  0  0
    6.3460    8.0651   22.5521 C   0  0  2  0  0  0
    5.1988    7.7740   23.4926 C   0  0  0  0  0  0
    5.2340    7.7504   24.8991 C   0  0  0  0  0  0
    4.0479    7.4356   25.5998 C   0  0  0  0  0  0
    2.8532    7.1531   24.8956 C   0  0  0  0  0  0
    2.8304    7.1863   23.4856 C   0  0  0  0  0  0
    4.0213    7.5017   22.8058 C   0  0  0  0  0  0
    4.2061    7.6015   21.3194 C   0  0  0  0  0  0
    5.6613    8.1081   21.1487 C   0  0  1  0  0  0
    5.5747    9.4355   20.6690 O   0  0  0  0  0  0
    6.0259    4.6443   23.7713 O   0  0  0  0  0  0
    7.2847    1.0364   18.2906 H   0  0  0  0  0  0
    8.1167   -0.1061   19.3387 H   0  0  0  0  0  0
    7.5747    1.4212   20.0101 H   0  0  0  0  0  0
    5.0153    1.9700   19.8395 H   0  0  0  0  0  0
    3.8827    0.6338   19.7477 H   0  0  0  0  0  0
    4.7578    1.1479   18.3146 H   0  0  0  0  0  0
    6.0820   -1.2273   17.9117 H   0  0  0  0  0  0
    4.7749   -1.6510   18.9712 H   0  0  0  0  0  0
    6.3745   -2.1265   19.3991 H   0  0  0  0  0  0
    6.9575   -0.8853   21.3231 H   0  0  0  0  0  0
    5.6041    0.0083   24.3724 H   0  0  0  0  0  0
    6.1999   -2.1143   23.6323 H   0  0  0  0  0  0
    7.5747   -1.5894   22.7100 H   0  0  0  0  0  0
    8.6923   -3.2750   23.7637 H   0  0  0  0  0  0
    9.3317   -2.9901   25.3598 H   0  0  0  0  0  0
    8.3716   -3.9059   27.3522 H   0  0  0  0  0  0
    6.7734   -5.5744   28.3160 H   0  0  0  0  0  0
    4.9978   -6.5325   26.8338 H   0  0  0  0  0  0
    6.3100   -4.3514   23.5757 H   0  0  0  0  0  0
    9.6704   -0.8046   25.4836 H   0  0  0  0  0  0
    9.4855   -0.6621   23.7500 H   0  0  0  0  0  0
    7.8647    0.7531   25.9148 H   0  0  0  0  0  0
    9.1188    1.4963   24.9786 H   0  0  0  0  0  0
    5.5572    2.3261   24.1710 H   0  0  0  0  0  0
    6.7746    2.6358   25.3718 H   0  0  0  0  0  0
    7.1896    3.5209   22.5709 H   0  0  0  0  0  0
    8.0150    4.7995   25.2662 H   0  0  0  0  0  0
    8.9644    3.5843   24.5492 H   0  0  0  0  0  0
    9.0314    5.1176   22.4095 H   0  0  0  0  0  0
   10.9154    6.5310   23.6327 H   0  0  0  0  0  0
   10.5785    5.5169   24.9903 H   0  0  0  0  0  0
   10.7944    2.8243   24.5738 H   0  0  0  0  0  0
   12.2416    1.1494   23.5789 H   0  0  0  0  0  0
   13.8126    1.7907   21.7780 H   0  0  0  0  0  0
   13.9261    4.1434   20.9833 H   0  0  0  0  0  0
   12.4288    5.8368   21.9492 H   0  0  0  0  0  0
    7.2320    6.2823   21.8880 H   0  0  0  0  0  0
    6.7746    9.0317   22.8215 H   0  0  0  0  0  0
    6.1453    7.9645   25.4380 H   0  0  0  0  0  0
    4.0546    7.4074   26.6807 H   0  0  0  0  0  0
    1.9533    6.9142   25.4419 H   0  0  0  0  0  0
    1.9220    6.9742   22.9401 H   0  0  0  0  0  0
    4.0698    6.6187   20.8727 H   0  0  0  0  0  0
    3.4636    8.2713   20.8800 H   0  0  0  0  0  0
    6.2007    7.5210   20.4039 H   0  0  0  0  0  0
    6.4062    9.8850   20.7586 H   0  0  0  0  0  0
    5.7763    4.8274   22.8449 H   0  0  0  0  0  0
    7.8175    1.3479   23.0274 H   0  0  0  0  0  0
  1  2  1  0  0  0
  1 46  1  0  0  0
  1 47  1  0  0  0
  1 48  1  0  0  0
  2  3  1  0  0  0
  2  4  1  0  0  0
  2  5  1  0  0  0
  3 49  1  0  0  0
  3 50  1  0  0  0
  3 51  1  0  0  0
  4 52  1  0  0  0
  4 53  1  0  0  0
  4 54  1  0  0  0
  5  6  1  0  0  0
  5 55  1  0  0  0
  6  7  2  0  0  0
  6  8  1  0  0  0
  8  9  1  0  0  0
  8 20  1  0  0  0
  8 56  1  0  0  0
  9 10  1  0  0  0
  9 57  1  0  0  0
  9 58  1  0  0  0
 10 11  1  0  0  0
 10 18  1  0  0  0
 11 12  1  0  0  0
 11 59  1  0  0  0
 11 60  1  0  0  0
 12 13  2  0  0  0
 12 17  1  0  0  0
 13 14  1  0  0  0
 13 61  1  0  0  0
 14 15  2  0  0  0
 14 62  1  0  0  0
 15 16  1  0  0  0
 15 63  1  0  0  0
 16 17  2  0  0  0
 17 64  1  0  0  0
 18 19  1  0  0  0
 18 65  1  0  0  0
 18 66  1  0  0  0
 19 20  1  0  0  0
 19 67  1  0  0  0
 19 68  1  0  0  0
 20 21  1  0  0  0
 20 93  1  0  0  0
 21 22  1  0  0  0
 21 69  1  0  0  0
 21 70  1  0  0  0
 22 23  1  0  0  0
 22 45  1  0  0  0
 22 71  1  0  0  0
 23 24  1  0  0  0
 23 72  1  0  0  0
 23 73  1  0  0  0
 24 25  1  0  0  0
 24 32  1  0  0  0
 24 74  1  0  0  0
 25 26  1  0  0  0
 25 75  1  0  0  0
 25 76  1  0  0  0
 26 27  2  0  0  0
 26 31  1  0  0  0
 27 28  1  0  0  0
 27 77  1  0  0  0
 28 29  2  0  0  0
 28 78  1  0  0  0
 29 30  1  0  0  0
 29 79  1  0  0  0
 30 31  2  0  0  0
 30 80  1  0  0  0
 31 81  1  0  0  0
 32 33  2  0  0  0
 32 34  1  0  0  0
 34 35  1  0  0  0
 34 82  1  0  0  0
 35 36  1  0  0  0
 35 43  1  0  0  0
 35 83  1  0  0  0
 36 37  2  0  0  0
 36 41  1  0  0  0
 37 38  1  0  0  0
 37 84  1  0  0  0
 38 39  2  0  0  0
 38 85  1  0  0  0
 39 40  1  0  0  0
 39 86  1  0  0  0
 40 41  2  0  0  0
 40 87  1  0  0  0
 41 42  1  0  0  0
 42 43  1  0  0  0
 42 88  1  0  0  0
 42 89  1  0  0  0
 43 44  1  0  0  0
 43 90  1  0  0  0
 44 91  1  0  0  0
 45 92  1  0  0  0
M  CHG  1  20   1
M  END
> <s_m_entry_id>
487

> <s_m_entry_name>
Compounds-withfrags-for-validation-docking.1913

> <s_m_Source_Path>
/home/rodolpho/data/melina/maestro/glide-dock_XP_5RGK_M-PRO_VALIDATION

> <s_m_Source_File>
glide-dock_XP_5RGK_M-PRO_VALIDATION_pv.maegz

> <i_m_Source_File_Index>
487

> <CID>
Indinavir

> <Potency>
43.13

> <pIC50>
4.36522

> <Source>
https://doi.org/10.1101/2020.03.23.004580

> <smiles>
C(C(C([H])([H])[H])(C([H])([H])[H])N(C(=O)C1(C([H])([H])N(C(C2=C([H])C([H])=C([H])N=C2[H])([H])[H])C([H])([H])C([H])([H])N1C(C(C(C(C(C1=C([H])C([H])=C([H])C([H])=C1[H])([H])[H])(C(=O)N(C1(C2=C(C(=C(C([H])=C2C([H])([H])C1(O[H])[H])[H])[H])[H])[H])[H])[H])([H])[H])(O[H])[H])([H])[H])[H])[H])([H])([H])[H]

> <Outcome>
Inactive

> <StandardizerResult>
Clear Stereo (ID: ClearStereo)
Wedge Clean (ID: WedgeClean)
Mesomerize (ID: Mesomerize)
Tautomerize (ID: Tautomerize)
Aromatize (ID: Aromatize)
Add Explicit Hydrogens (ID: AddExplicitH)
Neutralize (ID: Neutralize)
Clean 2D (ID: Clean2D)

> <chiral flag>
0

> <version>
0

> <i_lp_mmshare_version>
41011

> <i_f3d_flags>
0

> <s_epik_input>
W2NIXTFuW2NIXVtjSF1bY0hdYzFbQ0gyXU4oW0NIMl1bQ0BASF0yQyg9TylbTkhdQyhbQ0gzXSkoW0NIM10pW0NIM10pW0NIMl1bQ0gyXU4yW0NIMl1bQ0BASF0oW09IXSlbQ0gyXVtDQEhdKFtDSDJdYzNbY0hdW2NIXVtjSF1bY0hdW2NIXTMpQyg9TylbTkhdW0NASF00W0NASF0oW09IXSlbQ0gyXWMoYzQ1KVtjSF1bY0hdW2NIXVtjSF01

> <s_epik_cmdline>
J2VwaWtfcHl0aG9uJywgJy1waHQnLCAnMC41JywgJy1waCcsICc3LjQnLCAnLXRuJywgJzgnLCAnLW1hJywgJzIwMCcsICctaW1hZScsICc8aW5maWxlLm1hZT4nLCAnLW9tYWUnLCAnPG91dGZpbGUubWFlPic=

> <r_epik_Ionization_Penalty>
0.3395

> <r_epik_Ionization_Penalty_Charging>
0.3352

> <r_epik_Ionization_Penalty_Neutral>
0.0044

> <r_epik_State_Penalty>
0.5191

> <r_epik_Charging_Adjusted_Penalty>
0.854238

> <i_epik_Tot_Q>
1

> <i_epik_Tot_abs_Q>
1

> <s_lp_Force_Field>
OPLS3

> <r_lp_Energy>
55.4695

> <b_lp_Chiralities_Consistent>
1

> <s_lp_Variant>
ligprep_COVID_compounds-withfrags-smallmolecules-forvalidation.maegz:4-28

> <i_glide_original_lignum>
47

> <s_i_glide_gridfile>
glide-grid_5RGK_M-PRO_COVID

> <i_i_glide_lignum>
47

> <r_i_docking_score>
-5.00983587708984

> <r_i_glide_ligand_efficiency>
-0.111329686157552

> <r_i_glide_ligand_efficiency_sa>
-0.395987814782313

> <r_i_glide_ligand_efficiency_ln>
-1.04226911869762

> <r_glide_XP_GScore>
-5.52890787708984

> <r_i_glide_gscore>
-5.52890787708984

> <r_i_glide_evdw>
-36.5962371826172

> <r_i_glide_ecoul>
-17.509407043457

> <r_i_glide_energy>
-54.1056442260742

> <r_i_glide_einternal>
8.77647399902344

> <r_i_glide_emodel>
-74.1197416709614

> <r_glide_XP_HBond>
-1.98560279753564

> <i_i_glide_confnum>
1

> <i_i_glide_posenum>
1

> <r_i_glide_eff_state_penalty>
0.519072

> <i_glide_XP_PoseRank>
1

> <r_lp_tautomer_probability>


> <s_epik_Chemistry_Notes>


> <MW>


> <cLogP>


> <TPSA>


> <Rotatable Bonds>


> <Fraction sp3>


> <HBA>


> <HBD>


> <Structure ID>


> <Submission Fragments>


$$$$
ligprep_COVID_compounds-withfrags-smallmolecules-forvalidation.maegz:94
                    3D
 Structure written by MMmdl.
 46 49  0  0  1  0            999 V2000
    9.9905   -2.8825   23.7880 O   0  0  0  0  0  0
    8.9683   -3.3436   24.2957 C   0  0  0  0  0  0
    8.8418   -4.8506   24.5476 C   0  0  0  0  0  0
    7.4179   -5.3281   24.2615 C   0  0  0  0  0  0
    7.0995   -5.7421   22.9522 C   0  0  0  0  0  0
    5.8758   -6.1637   22.5707 N   0  0  0  0  0  0
    4.8995   -6.1760   23.4986 C   0  0  0  0  0  0
    5.0982   -5.7872   24.8385 C   0  0  0  0  0  0
    4.0406   -5.8430   25.7702 C   0  0  0  0  0  0
    4.2657   -5.4671   27.1078 C   0  0  0  0  0  0
    5.5408   -5.0308   27.5126 C   0  0  0  0  0  0
    6.5971   -4.9665   26.5816 C   0  0  0  0  0  0
    6.3872   -5.3570   25.2376 C   0  0  0  0  0  0
    7.9182   -2.5909   24.6502 N   0  0  0  0  0  0
    7.6971   -1.2636   24.2324 C   0  0  0  0  0  0
    8.5495   -0.2108   24.6215 C   0  0  0  0  0  0
    8.2841    1.0963   24.1708 C   0  0  0  0  0  0
    9.3440    2.3860   24.5979 Cl  0  0  0  0  0  0
    7.1763    1.3475   23.3378 C   0  0  0  0  0  0
    6.3444    0.2848   22.9103 C   0  0  0  0  0  0
    5.3049    0.4383   22.0174 O   0  0  0  0  0  0
    5.5433    1.2706   20.9217 C   0  0  2  0  0  0
    4.2374    1.4279   20.1194 C   0  0  0  0  0  0
    4.6519    1.2686   18.6517 C   0  0  0  0  0  0
    6.0209    0.6363   18.7461 C   0  0  0  0  0  0
    6.6592    0.2464   17.7708 O   0  0  0  0  0  0
    6.4490    0.6360   20.0041 N   0  0  0  0  0  0
    6.5958   -1.0093   23.3979 C   0  0  0  0  0  0
    9.5301   -5.3778   23.8831 H   0  0  0  0  0  0
    9.1646   -5.0967   25.5592 H   0  0  0  0  0  0
    7.8543   -5.7318   22.1796 H   0  0  0  0  0  0
    3.9324   -6.5201   23.1597 H   0  0  0  0  0  0
    3.0618   -6.1916   25.4711 H   0  0  0  0  0  0
    3.4625   -5.5239   27.8272 H   0  0  0  0  0  0
    5.7108   -4.7516   28.5407 H   0  0  0  0  0  0
    7.5643   -4.6398   26.9278 H   0  0  0  0  0  0
    7.1077   -3.1072   24.9562 H   0  0  0  0  0  0
    9.4055   -0.4053   25.2501 H   0  0  0  0  0  0
    7.0013    2.3602   23.0080 H   0  0  0  0  0  0
    5.9583    2.2362   21.1834 H   0  0  0  0  0  0
    3.5450    0.6383   20.4070 H   0  0  0  0  0  0
    3.7774    2.3925   20.3334 H   0  0  0  0  0  0
    3.9748    0.6365   18.0840 H   0  0  0  0  0  0
    4.7326    2.2357   18.1538 H   0  0  0  0  0  0
    7.3931    0.4061   20.2824 H   0  0  0  0  0  0
    5.9748   -1.8292   23.0733 H   0  0  0  0  0  0
  1  2  2  0  0  0
  2  3  1  0  0  0
  2 14  1  0  0  0
  3  4  1  0  0  0
  3 29  1  0  0  0
  3 30  1  0  0  0
  4  5  2  0  0  0
  4 13  1  0  0  0
  5  6  1  0  0  0
  5 31  1  0  0  0
  6  7  2  0  0  0
  7  8  1  0  0  0
  7 32  1  0  0  0
  8  9  2  0  0  0
  8 13  1  0  0  0
  9 10  1  0  0  0
  9 33  1  0  0  0
 10 11  2  0  0  0
 10 34  1  0  0  0
 11 12  1  0  0  0
 11 35  1  0  0  0
 12 13  2  0  0  0
 12 36  1  0  0  0
 14 15  1  0  0  0
 14 37  1  0  0  0
 15 16  2  0  0  0
 15 28  1  0  0  0
 16 17  1  0  0  0
 16 38  1  0  0  0
 17 18  1  0  0  0
 17 19  2  0  0  0
 19 20  1  0  0  0
 19 39  1  0  0  0
 20 21  1  0  0  0
 20 28  2  0  0  0
 21 22  1  0  0  0
 22 23  1  0  0  0
 22 27  1  0  0  0
 22 40  1  0  0  0
 23 24  1  0  0  0
 23 41  1  0  0  0
 23 42  1  0  0  0
 24 25  1  0  0  0
 24 43  1  0  0  0
 24 44  1  0  0  0
 25 26  2  0  0  0
 25 27  1  0  0  0
 27 45  1  0  0  0
 28 46  1  0  0  0
M  END
> <s_m_entry_id>
525

> <s_m_entry_name>
Compounds-withfrags-for-validation-docking.1823

> <s_m_Source_Path>
/home/rodolpho/data/melina/maestro/glide-dock_XP_5RGK_M-PRO_VALIDATION

> <s_m_Source_File>
glide-dock_XP_5RGK_M-PRO_VALIDATION_pv.maegz

> <i_m_Source_File_Index>
525

> <CID>
ERI-UCB-ce40166b-6

> <Potency>
38.3738

> <pIC50>
4.41597

> <Source>
Postera

> <smiles>
O=C(Cc1cncc2ccccc12)Nc1cc(Cl)cc(OC2CCC(=O)N2)c1

> <Outcome>
Inactive

> <StandardizerResult>
Clear Stereo (ID: ClearStereo)
Wedge Clean (ID: WedgeClean)
Mesomerize (ID: Mesomerize)
Tautomerize (ID: Tautomerize)
Aromatize (ID: Aromatize)
Add Explicit Hydrogens (ID: AddExplicitH)
Neutralize (ID: Neutralize)
Clean 2D (ID: Clean2D)

> <chiral flag>
0

> <version>
0

> <i_lp_mmshare_version>
41011

> <i_f3d_flags>
0

> <s_epik_input>
W2NIXTFbY0hdW2NIXVtjSF1jKGMxMiljKFtjSF1uW2NIXTIpW0NIMl1DKD1PKVtOSF1jM1tjSF1jKENsKVtjSF1jKFtjSF0zKU9bQ0BASF00W0NIMl1bQ0gyXUMoPU8pW05IXTQ=

> <s_epik_cmdline>
J2VwaWtfcHl0aG9uJywgJy1waHQnLCAnMC41JywgJy1waCcsICc3LjQnLCAnLXRuJywgJzgnLCAnLW1hJywgJzIwMCcsICctaW1hZScsICc8aW5maWxlLm1hZT4nLCAnLW9tYWUnLCAnPG91dGZpbGUubWFlPic=

> <r_lp_tautomer_probability>
1.0

> <r_epik_Ionization_Penalty>
0.0584

> <r_epik_Ionization_Penalty_Charging>
0.0

> <r_epik_Ionization_Penalty_Neutral>
0.0584

> <r_epik_State_Penalty>
0.0505

> <r_epik_Charging_Adjusted_Penalty>
0.0504635

> <i_epik_Tot_Q>
0

> <i_epik_Tot_abs_Q>
0

> <s_lp_Force_Field>
OPLS3

> <r_lp_Energy>
40.7822

> <b_lp_Chiralities_Consistent>
1

> <s_lp_Variant>
ligprep_COVID_compounds-withfrags-smallmolecules-forvalidation.maegz:94-1

> <i_glide_original_lignum>
282

> <s_i_glide_gridfile>
glide-grid_5RGK_M-PRO_COVID

> <i_i_glide_lignum>
282

> <r_i_docking_score>
-4.9751343902471

> <r_i_glide_ligand_efficiency>
-0.177683371080254

> <r_i_glide_ligand_efficiency_sa>
-0.53955136450869

> <r_i_glide_ligand_efficiency_ln>
-1.14840709356214

> <r_glide_XP_GScore>
-5.0255978902471

> <r_i_glide_gscore>
-5.0255978902471

> <r_i_glide_evdw>
-41.0253524780273

> <r_i_glide_ecoul>
-13.5263395309448

> <r_i_glide_energy>
-54.5516920089722

> <r_i_glide_einternal>
6.4436182975769

> <r_i_glide_emodel>
-71.973915599859

> <r_glide_XP_HBond>
-1.69512850167959

> <i_i_glide_confnum>
1

> <i_i_glide_posenum>
34

> <r_i_glide_eff_state_penalty>
0.0504635

> <i_glide_XP_PoseRank>
1

> <s_epik_Chemistry_Notes>
This compound contains an acetal/aminal-like group ( X-CH(R)-Y where X, Y are N, S, or O) that may be acid/base labile, releasing an aldehyde.

> <MW>
395.1

> <cLogP>
3.68

> <TPSA>
80.32

> <Rotatable Bonds>
5

> <Fraction sp3>
0.19

> <HBA>
4

> <HBD>
2

> <Structure ID>


> <Submission Fragments>


$$$$
ligprep_COVID_compounds-withfrags-smallmolecules-forvalidation.maegz:47
                    3D
 Structure written by MMmdl.
 76 79  0  0  1  0            999 V2000
    0.3959    3.5828   20.9884 C   0  0  0  0  0  0
    1.6573    3.5312   21.8652 C   0  0  2  0  0  0
    2.2722    2.1227   21.8755 C   0  0  0  0  0  0
    3.5610    2.0665   22.7215 C   0  0  2  0  0  0
    4.1540    0.6402   22.6999 C   0  0  0  0  0  0
    5.6512    0.5711   23.1025 C   0  0  0  0  0  0
    6.3521   -0.7004   22.7906 N   0  0  0  0  0  0
    6.3750   -1.2610   21.5450 C   0  0  0  0  0  0
    6.7692   -2.4141   21.3733 O   0  0  0  0  0  0
    6.0191   -0.4944   20.3183 C   0  0  0  0  0  0
    5.9761    0.8369   19.9884 C   0  0  0  0  0  0
    5.6485    0.9222   18.6090 C   0  0  0  0  0  0
    5.5746   -0.3640   18.1721 C   0  0  0  0  0  0
    5.7825   -1.2310   19.1938 O   0  0  0  0  0  0
    7.2263   -1.3401   23.8352 C   0  0  1  0  0  0
    8.3516   -0.4572   24.4113 C   0  0  0  0  0  0
    9.5155   -0.8457   24.3017 O   0  0  0  0  0  0
    8.0385    0.7121   24.9837 N   0  0  0  0  0  0
    8.9900    1.7320   25.4040 C   0  0  0  0  0  0
    9.2264    2.7765   24.2932 C   0  0  0  0  0  0
   10.6537    2.8869   23.7706 C   0  0  0  0  0  0
   11.4967    1.7575   23.6504 C   0  0  0  0  0  0
   12.7584    1.8641   23.0432 C   0  0  0  0  0  0
   13.1932    3.1114   22.5702 C   0  0  0  0  0  0
   12.3829    4.2493   22.7032 C   0  0  0  0  0  0
   12.8256    5.4432   22.2464 F   0  0  0  0  0  0
   11.1163    4.1378   23.3061 C   0  0  0  0  0  0
    6.5240   -1.9964   24.9916 C   0  0  0  0  0  0
    7.2064   -2.9799   25.7521 C   0  0  0  0  0  0
    6.5648   -3.6499   26.8092 C   0  0  0  0  0  0
    5.2308   -3.3186   27.0883 C   0  0  0  0  0  0
    4.5462   -2.3933   26.3864 N   0  0  0  0  0  0
    5.1799   -1.7684   25.3715 C   0  0  0  0  0  0
    3.2817    2.5651   24.1581 C   0  0  0  0  0  0
    2.5954    3.9509   24.2379 C   0  0  0  0  0  0
    2.1320    4.1944   25.6878 C   0  0  0  0  0  0
    3.5902    5.0724   23.8699 C   0  0  0  0  0  0
    1.3588    3.9856   23.3072 C   0  0  0  0  0  0
   -0.3776    2.9083   21.3587 H   0  0  0  0  0  0
    0.6236    3.3008   19.9583 H   0  0  0  0  0  0
   -0.0243    4.5865   20.9652 H   0  0  0  0  0  0
    2.3847    4.2119   21.4234 H   0  0  0  0  0  0
    1.5467    1.4036   22.2659 H   0  0  0  0  0  0
    2.4957    1.8208   20.8517 H   0  0  0  0  0  0
    4.2824    2.7367   22.2471 H   0  0  0  0  0  0
    3.5758    0.0084   23.3679 H   0  0  0  0  0  0
    3.9746    0.2246   21.7113 H   0  0  0  0  0  0
    6.2229    1.4012   22.6915 H   0  0  0  0  0  0
    5.6746    0.7410   24.1710 H   0  0  0  0  0  0
    6.1650    1.6799   20.6328 H   0  0  0  0  0  0
    5.5085    1.8146   18.0160 H   0  0  0  0  0  0
    5.3572   -0.8297   17.2250 H   0  0  0  0  0  0
    7.8125   -2.1414   23.3860 H   0  0  0  0  0  0
    7.0617    0.9012   25.1785 H   0  0  0  0  0  0
    8.5391    2.2342   26.2593 H   0  0  0  0  0  0
    9.9147    1.2884   25.7724 H   0  0  0  0  0  0
    8.5738    2.5918   23.4361 H   0  0  0  0  0  0
    8.9267    3.7527   24.6752 H   0  0  0  0  0  0
   11.1853    0.7866   23.9883 H   0  0  0  0  0  0
   13.3907    0.9946   22.9420 H   0  0  0  0  0  0
   14.1635    3.1984   22.1053 H   0  0  0  0  0  0
   10.4847    5.0120   23.3721 H   0  0  0  0  0  0
    8.2307   -3.2310   25.5160 H   0  0  0  0  0  0
    7.0800   -4.4061   27.3845 H   0  0  0  0  0  0
    4.6988   -3.8074   27.8917 H   0  0  0  0  0  0
    4.5584   -1.0634   24.8543 H   0  0  0  0  0  0
    2.6523    1.8284   24.6612 H   0  0  0  0  0  0
    4.2157    2.6052   24.7166 H   0  0  0  0  0  0
    1.6501    5.1651   25.7981 H   0  0  0  0  0  0
    2.9685    4.1691   26.3870 H   0  0  0  0  0  0
    1.4158    3.4379   26.0108 H   0  0  0  0  0  0
    3.1279    6.0563   23.9444 H   0  0  0  0  0  0
    3.9735    4.9738   22.8572 H   0  0  0  0  0  0
    4.4548    5.0716   24.5356 H   0  0  0  0  0  0
    0.9361    4.9906   23.2973 H   0  0  0  0  0  0
    0.5828    3.3373   23.7177 H   0  0  0  0  0  0
  1  2  1  0  0  0
  1 39  1  0  0  0
  1 40  1  0  0  0
  1 41  1  0  0  0
  2  3  1  0  0  0
  2 38  1  0  0  0
  2 42  1  0  0  0
  3  4  1  0  0  0
  3 43  1  0  0  0
  3 44  1  0  0  0
  4  5  1  0  0  0
  4 34  1  0  0  0
  4 45  1  0  0  0
  5  6  1  0  0  0
  5 46  1  0  0  0
  5 47  1  0  0  0
  6  7  1  0  0  0
  6 48  1  0  0  0
  6 49  1  0  0  0
  7  8  1  0  0  0
  7 15  1  0  0  0
  8  9  2  0  0  0
  8 10  1  0  0  0
 10 11  2  0  0  0
 10 14  1  0  0  0
 11 12  1  0  0  0
 11 50  1  0  0  0
 12 13  2  0  0  0
 12 51  1  0  0  0
 13 14  1  0  0  0
 13 52  1  0  0  0
 15 16  1  0  0  0
 15 28  1  0  0  0
 15 53  1  0  0  0
 16 17  2  0  0  0
 16 18  1  0  0  0
 18 19  1  0  0  0
 18 54  1  0  0  0
 19 20  1  0  0  0
 19 55  1  0  0  0
 19 56  1  0  0  0
 20 21  1  0  0  0
 20 57  1  0  0  0
 20 58  1  0  0  0
 21 22  2  0  0  0
 21 27  1  0  0  0
 22 23  1  0  0  0
 22 59  1  0  0  0
 23 24  2  0  0  0
 23 60  1  0  0  0
 24 25  1  0  0  0
 24 61  1  0  0  0
 25 26  1  0  0  0
 25 27  2  0  0  0
 27 62  1  0  0  0
 28 29  2  0  0  0
 28 33  1  0  0  0
 29 30  1  0  0  0
 29 63  1  0  0  0
 30 31  2  0  0  0
 30 64  1  0  0  0
 31 32  1  0  0  0
 31 65  1  0  0  0
 32 33  2  0  0  0
 33 66  1  0  0  0
 34 35  1  0  0  0
 34 67  1  0  0  0
 34 68  1  0  0  0
 35 36  1  0  0  0
 35 37  1  0  0  0
 35 38  1  0  0  0
 36 69  1  0  0  0
 36 70  1  0  0  0
 36 71  1  0  0  0
 37 72  1  0  0  0
 37 73  1  0  0  0
 37 74  1  0  0  0
 38 75  1  0  0  0
 38 76  1  0  0  0
M  END
> <s_m_entry_id>
542

> <s_m_entry_name>
Compounds-withfrags-for-validation-docking.1870

> <s_m_Source_Path>
/home/rodolpho/data/melina/maestro/glide-dock_XP_5RGK_M-PRO_VALIDATION

> <s_m_Source_File>
glide-dock_XP_5RGK_M-PRO_VALIDATION_pv.maegz

> <i_m_Source_File_Index>
542

> <CID>
ALP-POS-b0bc6a46-1

> <Potency>
99.5

> <pIC50>
4.00218

> <Source>
Postera

> <smiles>
CC1CC(CCN(C(=O)c2ccco2)C(C(=O)NCCc2cccc(F)c2)c2cccnc2)CC(C)(C)C1

> <Outcome>
Inactive

> <StandardizerResult>
Clear Stereo (ID: ClearStereo)
Wedge Clean (ID: WedgeClean)
Mesomerize (ID: Mesomerize)
Tautomerize (ID: Tautomerize)
Aromatize (ID: Aromatize)
Add Explicit Hydrogens (ID: AddExplicitH)
Neutralize (ID: Neutralize)
Clean 2D (ID: Clean2D)

> <chiral flag>
0

> <version>
0

> <i_lp_mmshare_version>
41011

> <i_f3d_flags>
0

> <s_epik_input>
W0NIM11bQ0BASF0oW0NIMl0xKVtDSDJdW0NAQEhdKFtDSDJdQzEoW0NIM10pW0NIM10pW0NIMl1bQ0gyXU4oQyg9TyljMltjSF1bY0hdW2NIXW8yKVtDQEhdKGMzW2NIXVtjSF1bY0hdbltjSF0zKUMoPU8pW05IXVtDSDJdW0NIMl1jNFtjSF1bY0hdW2NIXWMoRilbY0hdNA==

> <s_epik_cmdline>
J2VwaWtfcHl0aG9uJywgJy1waHQnLCAnMC41JywgJy1waCcsICc3LjQnLCAnLXRuJywgJzgnLCAnLW1hJywgJzIwMCcsICctaW1hZScsICc8aW5maWxlLm1hZT4nLCAnLW9tYWUnLCAnPG91dGZpbGUubWFlPic=

> <r_lp_tautomer_probability>
1.0

> <r_epik_Ionization_Penalty>
8.0E-4

> <r_epik_Ionization_Penalty_Charging>
0.0

> <r_epik_Ionization_Penalty_Neutral>
8.0E-4

> <r_epik_State_Penalty>
0.0

> <r_epik_Charging_Adjusted_Penalty>
0.0

> <i_epik_Tot_Q>
0

> <i_epik_Tot_abs_Q>
0

> <s_lp_Force_Field>
OPLS3

> <r_lp_Energy>
56.4216

> <b_lp_Chiralities_Consistent>
1

> <s_lp_Variant>
ligprep_COVID_compounds-withfrags-smallmolecules-forvalidation.maegz:47-3

> <i_glide_original_lignum>
207

> <s_i_glide_gridfile>
glide-grid_5RGK_M-PRO_COVID

> <i_i_glide_lignum>
207

> <r_i_docking_score>
-4.96096690407331

> <r_i_glide_ligand_efficiency>
-0.130551760633508

> <r_i_glide_ligand_efficiency_sa>
-0.438911808031966

> <r_i_glide_ligand_efficiency_ln>
-1.06973040137889

> <r_glide_XP_GScore>
-4.96096690407331

> <r_i_glide_gscore>
-4.96096690407331

> <r_i_glide_evdw>
-42.2811546325684

> <r_i_glide_ecoul>
-7.98321485519409

> <r_i_glide_energy>
-50.2643694877625

> <r_i_glide_einternal>
6.8868408203125

> <r_i_glide_emodel>
-67.2592226603034

> <r_glide_XP_HBond>
-0.112188184581221

> <i_i_glide_confnum>
2

> <i_i_glide_posenum>
3

> <r_i_glide_eff_state_penalty>
0.0

> <i_glide_XP_PoseRank>
1

> <MW>
519.29

> <cLogP>
6.21

> <TPSA>
75.44

> <Rotatable Bonds>
10

> <Fraction sp3>
0.45

> <HBA>
4

> <HBD>
1

> <s_epik_Chemistry_Notes>


> <Structure ID>


> <Submission Fragments>


$$$$
ligprep_COVID_compounds-withfrags-smallmolecules-forvalidation.maegz:13
                    3D
 Structure written by MMmdl.
 73 76  0  0  1  0            999 V2000
    7.4789    7.3028   29.4286 C   0  0  0  0  0  0
    6.1180    6.7775   28.9266 C   0  0  0  0  0  0
    5.4190    6.0017   30.0600 C   0  0  0  0  0  0
    5.2435    8.0032   28.5838 C   0  0  0  0  0  0
    6.3362    5.8406   27.7249 C   0  0  0  0  0  0
    7.1648    4.7052   27.8715 C   0  0  0  0  0  0
    7.4075    3.8338   26.7948 C   0  0  0  0  0  0
    6.8257    4.0687   25.5293 C   0  0  0  0  0  0
    7.1120    3.2351   24.3936 N   0  0  0  0  0  0
    6.0381    2.7235   23.7034 C   0  0  0  0  0  0
    4.8957    2.7566   24.1711 O   0  0  0  0  0  0
    6.1941    2.0069   22.3346 C   0  0  2  0  0  0
    4.8527    1.7561   21.6092 C   0  0  0  0  0  0
    5.1984    0.6388   20.6376 C   0  0  0  0  0  0
    6.1509   -0.2321   21.4526 C   0  0  0  0  0  0
    6.7770    0.6525   22.4604 N   0  3  0  0  0  0
    8.5343    2.9454   23.9950 C   0  0  2  0  0  0
    9.1504    1.6919   24.6933 C   0  0  0  0  0  0
   10.2845    1.3068   24.4044 O   0  0  0  0  0  0
    8.3749    0.9650   25.5137 N   0  0  0  0  0  0
    8.6927   -0.3710   26.0067 C   0  0  0  0  0  0
    8.1718   -1.4244   25.0124 C   0  0  0  0  0  0
    8.4193   -2.8543   25.4521 C   0  0  0  0  0  0
    9.3599   -3.6603   24.7736 C   0  0  0  0  0  0
    9.5488   -5.0030   25.1563 C   0  0  0  0  0  0
    8.7899   -5.5446   26.2118 C   0  0  0  0  0  0
    7.8605   -4.7423   26.9010 C   0  0  0  0  0  0
    7.1355   -5.2590   27.9210 F   0  0  0  0  0  0
    7.6749   -3.3992   26.5200 C   0  0  0  0  0  0
    9.5734    4.0751   24.0622 C   0  0  0  0  0  0
   10.7862    3.9241   23.3371 C   0  0  0  0  0  0
   11.8104    4.8857   23.3775 C   0  0  0  0  0  0
   11.6088    6.0235   24.1694 C   0  0  0  0  0  0
   10.4608    6.2462   24.8278 N   0  0  0  0  0  0
    9.4852    5.3169   24.7547 C   0  0  0  0  0  0
    5.9878    5.2017   25.3798 C   0  0  0  0  0  0
    5.7450    6.0721   26.4591 C   0  0  0  0  0  0
    7.3553    7.9971   30.2600 H   0  0  0  0  0  0
    8.0116    7.8302   28.6378 H   0  0  0  0  0  0
    8.1282    6.4999   29.7768 H   0  0  0  0  0  0
    6.0118    5.1546   30.4028 H   0  0  0  0  0  0
    4.4549    5.6145   29.7316 H   0  0  0  0  0  0
    5.2385    6.6376   30.9273 H   0  0  0  0  0  0
    5.1150    8.6521   29.4506 H   0  0  0  0  0  0
    4.2450    7.7107   28.2567 H   0  0  0  0  0  0
    5.6942    8.6087   27.7965 H   0  0  0  0  0  0
    7.6283    4.4905   28.8213 H   0  0  0  0  0  0
    8.0628    2.9994   26.9685 H   0  0  0  0  0  0
    6.8222    2.6059   21.6737 H   0  0  0  0  0  0
    4.0805    1.3903   22.2881 H   0  0  0  0  0  0
    4.4514    2.6370   21.1071 H   0  0  0  0  0  0
    4.3262    0.0954   20.2739 H   0  0  0  0  0  0
    5.7166    1.0564   19.7721 H   0  0  0  0  0  0
    5.6003   -1.0178   21.9719 H   0  0  0  0  0  0
    6.9015   -0.7117   20.8224 H   0  0  0  0  0  0
    7.7755    0.7066   22.3014 H   0  0  0  0  0  0
    8.5333    2.6682   22.9492 H   0  0  0  0  0  0
    7.4508    1.3140   25.7601 H   0  0  0  0  0  0
    9.7641   -0.4893   26.1681 H   0  0  0  0  0  0
    8.2139   -0.4973   26.9782 H   0  0  0  0  0  0
    7.0941   -1.3005   24.8769 H   0  0  0  0  0  0
    8.6222   -1.2678   24.0321 H   0  0  0  0  0  0
    9.9370   -3.2599   23.9525 H   0  0  0  0  0  0
   10.2652   -5.6216   24.6325 H   0  0  0  0  0  0
    8.9244   -6.5763   26.5038 H   0  0  0  0  0  0
    6.9482   -2.7952   27.0431 H   0  0  0  0  0  0
   10.9497    3.0463   22.7326 H   0  0  0  0  0  0
   12.7285    4.7441   22.8269 H   0  0  0  0  0  0
   12.3687    6.7866   24.2461 H   0  0  0  0  0  0
    8.6288    5.6270   25.3164 H   0  0  0  0  0  0
    5.5437    5.4236   24.4187 H   0  0  0  0  0  0
    5.1041    6.9204   26.2793 H   0  0  0  0  0  0
    6.5810    0.2855   23.3814 H   0  0  0  0  0  0
  1  2  1  0  0  0
  1 38  1  0  0  0
  1 39  1  0  0  0
  1 40  1  0  0  0
  2  3  1  0  0  0
  2  4  1  0  0  0
  2  5  1  0  0  0
  3 41  1  0  0  0
  3 42  1  0  0  0
  3 43  1  0  0  0
  4 44  1  0  0  0
  4 45  1  0  0  0
  4 46  1  0  0  0
  5  6  2  0  0  0
  5 37  1  0  0  0
  6  7  1  0  0  0
  6 47  1  0  0  0
  7  8  2  0  0  0
  7 48  1  0  0  0
  8  9  1  0  0  0
  8 36  1  0  0  0
  9 10  1  0  0  0
  9 17  1  0  0  0
 10 11  2  0  0  0
 10 12  1  0  0  0
 12 13  1  0  0  0
 12 16  1  0  0  0
 12 49  1  0  0  0
 13 14  1  0  0  0
 13 50  1  0  0  0
 13 51  1  0  0  0
 14 15  1  0  0  0
 14 52  1  0  0  0
 14 53  1  0  0  0
 15 16  1  0  0  0
 15 54  1  0  0  0
 15 55  1  0  0  0
 16 56  1  0  0  0
 16 73  1  0  0  0
 17 18  1  0  0  0
 17 30  1  0  0  0
 17 57  1  0  0  0
 18 19  2  0  0  0
 18 20  1  0  0  0
 20 21  1  0  0  0
 20 58  1  0  0  0
 21 22  1  0  0  0
 21 59  1  0  0  0
 21 60  1  0  0  0
 22 23  1  0  0  0
 22 61  1  0  0  0
 22 62  1  0  0  0
 23 24  2  0  0  0
 23 29  1  0  0  0
 24 25  1  0  0  0
 24 63  1  0  0  0
 25 26  2  0  0  0
 25 64  1  0  0  0
 26 27  1  0  0  0
 26 65  1  0  0  0
 27 28  1  0  0  0
 27 29  2  0  0  0
 29 66  1  0  0  0
 30 31  2  0  0  0
 30 35  1  0  0  0
 31 32  1  0  0  0
 31 67  1  0  0  0
 32 33  2  0  0  0
 32 68  1  0  0  0
 33 34  1  0  0  0
 33 69  1  0  0  0
 34 35  2  0  0  0
 35 70  1  0  0  0
 36 37  2  0  0  0
 36 71  1  0  0  0
 37 72  1  0  0  0
M  CHG  1  16   1
M  END
> <s_m_entry_id>
553

> <s_m_entry_name>
Compounds-withfrags-for-validation-docking.1904

> <s_m_Source_Path>
/home/rodolpho/data/melina/maestro/glide-dock_XP_5RGK_M-PRO_VALIDATION

> <s_m_Source_File>
glide-dock_XP_5RGK_M-PRO_VALIDATION_pv.maegz

> <i_m_Source_File_Index>
553

> <CID>
ALP-POS-02c6a514-51

> <Potency>
99.5

> <pIC50>
4.00218

> <Source>
Postera

> <smiles>
CC(C)(C)c1ccc(N(C(=O)C2CCCN2)C(C(=O)NCCc2cccc(F)c2)c2cccnc2)cc1

> <Outcome>
Inactive

> <StandardizerResult>
Clear Stereo (ID: ClearStereo)
Wedge Clean (ID: WedgeClean)
Mesomerize (ID: Mesomerize)
Tautomerize (ID: Tautomerize)
Aromatize (ID: Aromatize)
Add Explicit Hydrogens (ID: AddExplicitH)
Neutralize (ID: Neutralize)
Clean 2D (ID: Clean2D)

> <chiral flag>
0

> <version>
0

> <i_lp_mmshare_version>
41011

> <i_f3d_flags>
0

> <s_epik_input>
W0NIM11DKFtDSDNdKShbQ0gzXSljMVtjSF1bY0hdYyhbY0hdW2NIXTEpTihDKD1PKVtDQEBIXTJbQ0gyXVtDSDJdW0NIMl1bTkhdMilbQ0BASF0oYzNbY0hdW2NIXVtjSF1uW2NIXTMpQyg9TylbTkhdW0NIMl1bQ0gyXWM0W2NIXVtjSF1bY0hdYyhGKVtjSF00

> <s_epik_cmdline>
J2VwaWtfcHl0aG9uJywgJy1waHQnLCAnMC41JywgJy1waCcsICc3LjQnLCAnLXRuJywgJzgnLCAnLW1hJywgJzIwMCcsICctaW1hZScsICc8aW5maWxlLm1hZT4nLCAnLW9tYWUnLCAnPG91dGZpbGUubWFlPic=

> <r_epik_Ionization_Penalty>
0.1422

> <r_epik_Ionization_Penalty_Charging>
0.1417

> <r_epik_Ionization_Penalty_Neutral>
4.0E-4

> <r_epik_State_Penalty>
0.131

> <r_epik_Charging_Adjusted_Penalty>
0.272745

> <i_epik_Tot_Q>
1

> <i_epik_Tot_abs_Q>
1

> <s_lp_Force_Field>
OPLS3

> <r_lp_Energy>
77.5192

> <b_lp_Chiralities_Consistent>
1

> <s_lp_Variant>
ligprep_COVID_compounds-withfrags-smallmolecules-forvalidation.maegz:13-4

> <i_glide_original_lignum>
120

> <s_i_glide_gridfile>
glide-grid_5RGK_M-PRO_COVID

> <i_i_glide_lignum>
120

> <r_i_docking_score>
-4.94679632661803

> <r_i_glide_ligand_efficiency>
-0.133697198016704

> <r_i_glide_ligand_efficiency_sa>
-0.445508724198864

> <r_i_glide_ligand_efficiency_ln>
-1.07284415388371

> <r_glide_XP_GScore>
-5.07782532661803

> <r_i_glide_gscore>
-5.07782532661803

> <r_i_glide_evdw>
-34.5307655334473

> <r_i_glide_ecoul>
-15.7650604248047

> <r_i_glide_energy>
-50.295825958252

> <r_i_glide_einternal>
7.85470294952393

> <r_i_glide_emodel>
-59.544870090376

> <r_glide_XP_HBond>
-1.26647775288511

> <i_i_glide_confnum>
2

> <i_i_glide_posenum>
1

> <r_i_glide_eff_state_penalty>
0.131029

> <i_glide_XP_PoseRank>
1

> <MW>
502.27

> <cLogP>
4.7

> <TPSA>
74.33

> <Rotatable Bonds>
8

> <Fraction sp3>
0.37

> <HBA>
4

> <HBD>
2

> <r_lp_tautomer_probability>


> <s_epik_Chemistry_Notes>


> <Structure ID>


> <Submission Fragments>


$$$$
ligprep_COVID_compounds-withfrags-smallmolecules-forvalidation.maegz:11
                    3D
 Structure written by MMmdl.
 61 64  0  0  1  0            999 V2000
    3.2388   -5.4393   26.8100 C   0  0  0  0  0  0
    4.1608   -4.8344   27.8894 C   0  0  0  0  0  0
    3.3221   -3.9739   28.8551 C   0  0  0  0  0  0
    4.7595   -6.0101   28.6958 C   0  0  0  0  0  0
    5.2351   -3.9533   27.2247 C   0  0  0  0  0  0
    4.8504   -2.8881   26.3782 C   0  0  0  0  0  0
    5.8108   -2.0960   25.7195 C   0  0  0  0  0  0
    7.1920   -2.3362   25.8950 C   0  0  0  0  0  0
    8.1854   -1.6231   25.1267 N   0  0  0  0  0  0
    9.1718   -2.3098   24.4719 C   0  0  0  0  0  0
   10.1624   -1.8204   23.9360 O   0  0  0  0  0  0
    8.9925   -3.7357   24.2736 C   0  0  0  0  0  0
    8.0804   -4.3971   23.5056 C   0  0  0  0  0  0
    8.3698   -5.7638   23.6953 C   0  0  0  0  0  0
    9.3996   -5.8253   24.5921 C   0  0  0  0  0  0
    9.8219   -4.5877   24.9268 O   0  0  0  0  0  0
    8.0492   -0.1402   25.0314 C   0  0  1  0  0  0
    9.3946    0.6509   25.0260 C   0  0  0  0  0  0
   10.2580    0.3352   25.8476 O   0  0  0  0  0  0
    9.5797    1.6729   24.1763 N   0  0  0  0  0  0
   10.8254    2.2121   23.7707 C   0  0  0  0  0  0
   11.9612    1.3892   23.5765 C   0  0  0  0  0  0
   13.1181    1.9128   22.9707 C   0  0  0  0  0  0
   13.1563    3.2621   22.5708 C   0  0  0  0  0  0
   12.0397    4.0903   22.7868 C   0  0  0  0  0  0
   10.8716    3.5629   23.3707 C   0  0  0  0  0  0
    7.1823    0.2459   23.8289 C   0  0  0  0  0  0
    6.6018    1.5321   23.7372 C   0  0  0  0  0  0
    5.6997    1.8364   22.7059 C   0  0  0  0  0  0
    5.4221    0.8692   21.7323 C   0  0  0  0  0  0
    5.9546   -0.3616   21.7748 N   0  0  0  0  0  0
    6.7886   -0.6504   22.7932 C   0  0  0  0  0  0
    7.5750   -3.3442   26.8128 C   0  0  0  0  0  0
    6.6174   -4.1637   27.4350 C   0  0  0  0  0  0
    2.4922   -6.1001   27.2524 H   0  0  0  0  0  0
    3.8109   -6.0280   26.0911 H   0  0  0  0  0  0
    2.6961   -4.6753   26.2551 H   0  0  0  0  0  0
    2.8108   -3.1613   28.3393 H   0  0  0  0  0  0
    3.9496   -3.5274   29.6279 H   0  0  0  0  0  0
    2.5576   -4.5687   29.3567 H   0  0  0  0  0  0
    3.9763   -6.6293   29.1353 H   0  0  0  0  0  0
    5.3833   -5.6612   29.5194 H   0  0  0  0  0  0
    5.3651   -6.6656   28.0672 H   0  0  0  0  0  0
    3.8055   -2.6799   26.2036 H   0  0  0  0  0  0
    5.4580   -1.3261   25.0526 H   0  0  0  0  0  0
    7.3153   -3.9566   22.8832 H   0  0  0  0  0  0
    7.8731   -6.5973   23.2304 H   0  0  0  0  0  0
    9.9592   -6.6290   25.0487 H   0  0  0  0  0  0
    7.5748    0.1901   25.9527 H   0  0  0  0  0  0
    8.7722    1.9845   23.6550 H   0  0  0  0  0  0
   11.9366    0.3400   23.8369 H   0  0  0  0  0  0
   13.9750    1.2774   22.8004 H   0  0  0  0  0  0
   14.0402    3.6567   22.0941 H   0  0  0  0  0  0
   12.0611    5.1219   22.4668 H   0  0  0  0  0  0
   10.0007    4.1939   23.4778 H   0  0  0  0  0  0
    6.8116    2.2781   24.4900 H   0  0  0  0  0  0
    5.2394    2.8119   22.6455 H   0  0  0  0  0  0
    4.7472    1.0819   20.9162 H   0  0  0  0  0  0
    7.1463   -1.6656   22.7675 H   0  0  0  0  0  0
    8.6197   -3.5440   27.0037 H   0  0  0  0  0  0
    6.9811   -4.9483   28.0799 H   0  0  0  0  0  0
  1  2  1  0  0  0
  1 35  1  0  0  0
  1 36  1  0  0  0
  1 37  1  0  0  0
  2  3  1  0  0  0
  2  4  1  0  0  0
  2  5  1  0  0  0
  3 38  1  0  0  0
  3 39  1  0  0  0
  3 40  1  0  0  0
  4 41  1  0  0  0
  4 42  1  0  0  0
  4 43  1  0  0  0
  5  6  2  0  0  0
  5 34  1  0  0  0
  6  7  1  0  0  0
  6 44  1  0  0  0
  7  8  2  0  0  0
  7 45  1  0  0  0
  8  9  1  0  0  0
  8 33  1  0  0  0
  9 10  1  0  0  0
  9 17  1  0  0  0
 10 11  2  0  0  0
 10 12  1  0  0  0
 12 13  2  0  0  0
 12 16  1  0  0  0
 13 14  1  0  0  0
 13 46  1  0  0  0
 14 15  2  0  0  0
 14 47  1  0  0  0
 15 16  1  0  0  0
 15 48  1  0  0  0
 17 18  1  0  0  0
 17 27  1  0  0  0
 17 49  1  0  0  0
 18 19  2  0  0  0
 18 20  1  0  0  0
 20 21  1  0  0  0
 20 50  1  0  0  0
 21 22  2  0  0  0
 21 26  1  0  0  0
 22 23  1  0  0  0
 22 51  1  0  0  0
 23 24  2  0  0  0
 23 52  1  0  0  0
 24 25  1  0  0  0
 24 53  1  0  0  0
 25 26  2  0  0  0
 25 54  1  0  0  0
 26 55  1  0  0  0
 27 28  2  0  0  0
 27 32  1  0  0  0
 28 29  1  0  0  0
 28 56  1  0  0  0
 29 30  2  0  0  0
 29 57  1  0  0  0
 30 31  1  0  0  0
 30 58  1  0  0  0
 31 32  2  0  0  0
 32 59  1  0  0  0
 33 34  2  0  0  0
 33 60  1  0  0  0
 34 61  1  0  0  0
M  END
> <s_m_entry_id>
555

> <s_m_entry_name>
Compounds-withfrags-for-validation-docking.1906

> <s_m_Source_Path>
/home/rodolpho/data/melina/maestro/glide-dock_XP_5RGK_M-PRO_VALIDATION

> <s_m_Source_File>
glide-dock_XP_5RGK_M-PRO_VALIDATION_pv.maegz

> <i_m_Source_File_Index>
555

> <CID>
ALP-POS-02c6a514-56

> <Potency>
11.2086

> <pIC50>
4.95045

> <Source>
Postera

> <smiles>
CC(C)(C)c1ccc(N(C(=O)c2ccco2)C(C(=O)Nc2ccccc2)c2cccnc2)cc1

> <Outcome>
Inactive

> <StandardizerResult>
Clear Stereo (ID: ClearStereo)
Wedge Clean (ID: WedgeClean)
Mesomerize (ID: Mesomerize)
Tautomerize (ID: Tautomerize)
Aromatize (ID: Aromatize)
Add Explicit Hydrogens (ID: AddExplicitH)
Neutralize (ID: Neutralize)
Clean 2D (ID: Clean2D)

> <chiral flag>
0

> <version>
0

> <i_lp_mmshare_version>
41011

> <i_f3d_flags>
0

> <s_epik_input>
W0NIM11DKFtDSDNdKShbQ0gzXSljMVtjSF1bY0hdYyhbY0hdW2NIXTEpTihDKD1PKWMyW2NIXVtjSF1bY0hdbzIpW0NASF0oYzNbY0hdW2NIXVtjSF1uW2NIXTMpQyg9TylbTkhdYzRbY0hdW2NIXVtjSF1bY0hdW2NIXTQ=

> <s_epik_cmdline>
J2VwaWtfcHl0aG9uJywgJy1waHQnLCAnMC41JywgJy1waCcsICc3LjQnLCAnLXRuJywgJzgnLCAnLW1hJywgJzIwMCcsICctaW1hZScsICc8aW5maWxlLm1hZT4nLCAnLW9tYWUnLCAnPG91dGZpbGUubWFlPic=

> <r_lp_tautomer_probability>
1.0

> <r_epik_Ionization_Penalty>
0.0036

> <r_epik_Ionization_Penalty_Charging>
0.0

> <r_epik_Ionization_Penalty_Neutral>
0.0036

> <r_epik_State_Penalty>
0.0

> <r_epik_Charging_Adjusted_Penalty>
0.0

> <i_epik_Tot_Q>
0

> <i_epik_Tot_abs_Q>
0

> <s_lp_Force_Field>
OPLS3

> <r_lp_Energy>
78.2707

> <b_lp_Chiralities_Consistent>
1

> <s_lp_Variant>
ligprep_COVID_compounds-withfrags-smallmolecules-forvalidation.maegz:11-1

> <i_glide_original_lignum>
113

> <s_i_glide_gridfile>
glide-grid_5RGK_M-PRO_COVID

> <i_i_glide_lignum>
113

> <r_i_docking_score>
-4.94543601034356

> <r_i_glide_ligand_efficiency>
-0.145454000304222

> <r_i_glide_ligand_efficiency_sa>
-0.471214495374687

> <r_i_glide_ligand_efficiency_ln>
-1.0925855294664

> <r_glide_XP_GScore>
-4.94543601034356

> <r_i_glide_gscore>
-4.94543601034356

> <r_i_glide_evdw>
-35.9905548095703

> <r_i_glide_ecoul>
-11.524787902832

> <r_i_glide_energy>
-47.5153427124023

> <r_i_glide_einternal>
14.2008457183838

> <r_i_glide_emodel>
-52.0020801937006

> <r_glide_XP_HBond>
-0.989544761926285

> <i_i_glide_confnum>
1

> <i_i_glide_posenum>
29

> <r_i_glide_eff_state_penalty>
0.0

> <i_glide_XP_PoseRank>
1

> <MW>
453.21

> <TPSA>
75.44

> <Rotatable Bonds>
6

> <Fraction sp3>
0.18

> <HBA>
4

> <HBD>
1

> <cLogP>
6.0

> <s_epik_Chemistry_Notes>


> <Structure ID>


> <Submission Fragments>


$$$$
ligprep_COVID_compounds-withfrags-smallmolecules-forvalidation.maegz:52
                    3D
 Structure written by MMmdl.
 36 38  0  0  1  0            999 V2000
    3.6297   -3.4797   29.3108 C   0  0  0  0  0  0
    4.0240   -3.1703   27.9814 O   0  0  0  0  0  0
    5.1509   -3.7859   27.4818 C   0  0  0  0  0  0
    5.8810   -4.7849   28.1709 C   0  0  0  0  0  0
    7.0342   -5.3509   27.5989 C   0  0  0  0  0  0
    7.4758   -4.9477   26.3214 C   0  0  0  0  0  0
    8.5475   -5.2816   25.4579 C   0  0  0  0  0  0
    9.5750   -6.1639   25.7706 N   0  0  0  0  0  0
    8.4795   -4.6565   24.3180 N   0  0  0  0  0  0
    7.4031   -3.8145   24.3909 N   0  0  0  0  0  0
    7.1751   -2.9643   23.2442 C   0  0  0  0  0  0
    7.6163   -3.3636   22.1691 O   0  0  0  0  0  0
    6.4935   -1.5924   23.4280 C   0  0  0  0  0  0
    6.1242   -0.7174   22.2163 C   0  0  0  0  0  0
    5.6006    0.5599   22.5154 C   0  0  0  0  0  0
    5.1807    1.4333   21.4960 C   0  0  0  0  0  0
    5.2946    1.0462   20.1503 C   0  0  0  0  0  0
    5.8244   -0.2138   19.8277 C   0  0  0  0  0  0
    5.9752   -0.6678   18.1711 Cl  0  0  0  0  0  0
    6.2233   -1.0985   20.8515 C   0  0  0  0  0  0
    6.7341   -3.9547   25.6203 C   0  0  0  0  0  0
    5.5804   -3.3832   26.2023 C   0  0  0  0  0  0
    2.7657   -2.8725   29.5806 H   0  0  0  0  0  0
    4.4237   -3.2595   30.0263 H   0  0  0  0  0  0
    3.3380   -4.5268   29.4035 H   0  0  0  0  0  0
    5.5800   -5.1325   29.1475 H   0  0  0  0  0  0
    7.5846   -6.1174   28.1273 H   0  0  0  0  0  0
    9.5733   -6.7027   26.6352 H   0  0  0  0  0  0
   10.2752   -6.4306   25.0891 H   0  0  0  0  0  0
    5.5747   -1.7361   23.9740 H   0  0  0  0  0  0
    7.1407   -1.0036   24.0787 H   0  0  0  0  0  0
    5.5103    0.8757   23.5441 H   0  0  0  0  0  0
    4.7776    2.4055   21.7434 H   0  0  0  0  0  0
    4.9844    1.7271   19.3699 H   0  0  0  0  0  0
    6.5928   -2.0625   20.5460 H   0  0  0  0  0  0
    4.9881   -2.6452   25.6916 H   0  0  0  0  0  0
  1  2  1  0  0  0
  1 23  1  0  0  0
  1 24  1  0  0  0
  1 25  1  0  0  0
  2  3  1  0  0  0
  3  4  2  0  0  0
  3 22  1  0  0  0
  4  5  1  0  0  0
  4 26  1  0  0  0
  5  6  2  0  0  0
  5 27  1  0  0  0
  6  7  1  0  0  0
  6 21  1  0  0  0
  7  8  1  0  0  0
  7  9  2  0  0  0
  8 28  1  0  0  0
  8 29  1  0  0  0
  9 10  1  0  0  0
 10 11  1  0  0  0
 10 21  1  0  0  0
 11 12  2  0  0  0
 11 13  1  0  0  0
 13 14  1  0  0  0
 13 30  1  0  0  0
 13 31  1  0  0  0
 14 15  2  0  0  0
 14 20  1  0  0  0
 15 16  1  0  0  0
 15 32  1  0  0  0
 16 17  2  0  0  0
 16 33  1  0  0  0
 17 18  1  0  0  0
 17 34  1  0  0  0
 18 19  1  0  0  0
 18 20  2  0  0  0
 20 35  1  0  0  0
 21 22  2  0  0  0
 22 36  1  0  0  0
M  END
> <s_m_entry_id>
557

> <s_m_entry_name>
Compounds-withfrags-for-validation-docking.1865

> <s_m_Source_Path>
/home/rodolpho/data/melina/maestro/glide-dock_XP_5RGK_M-PRO_VALIDATION

> <s_m_Source_File>
glide-dock_XP_5RGK_M-PRO_VALIDATION_pv.maegz

> <i_m_Source_File_Index>
557

> <CID>
MAT-POS-53907a1c-1

> <Potency>
99.5

> <pIC50>
4.00218

> <Source>
Postera

> <smiles>
COc1ccc2c(N)nn(C(=O)Cc3cccc(Cl)c3)c2c1

> <Outcome>
Inactive

> <StandardizerResult>
Clear Stereo (ID: ClearStereo)
Wedge Clean (ID: WedgeClean)
Mesomerize (ID: Mesomerize)
Tautomerize (ID: Tautomerize)
Aromatize (ID: Aromatize)
Add Explicit Hydrogens (ID: AddExplicitH)
Neutralize (ID: Neutralize)
Clean 2D (ID: Clean2D)

> <chiral flag>
0

> <version>
0

> <i_lp_mmshare_version>
41011

> <i_f3d_flags>
0

> <s_epik_input>
W0NIM11PYyhbY0hdW2NIXTEpW2NIXWMoYzEyKW4obmMyW05IMl0pQyg9TylbQ0gyXWMzW2NIXVtjSF1bY0hdYyhDbClbY0hdMw==

> <s_epik_cmdline>
J2VwaWtfcHl0aG9uJywgJy1waHQnLCAnMC41JywgJy1waCcsICc3LjQnLCAnLXRuJywgJzgnLCAnLW1hJywgJzIwMCcsICctaW1hZScsICc8aW5maWxlLm1hZT4nLCAnLW9tYWUnLCAnPG91dGZpbGUubWFlPic=

> <r_lp_tautomer_probability>
1.0

> <r_epik_Ionization_Penalty>
3.0E-4

> <r_epik_Ionization_Penalty_Charging>
0.0

> <r_epik_Ionization_Penalty_Neutral>
3.0E-4

> <r_epik_State_Penalty>
0.0

> <r_epik_Charging_Adjusted_Penalty>
0.0

> <i_epik_Tot_Q>
0

> <i_epik_Tot_abs_Q>
0

> <s_lp_Force_Field>
OPLS3

> <r_lp_Energy>
25.1927

> <b_lp_Chiralities_Consistent>
1

> <s_lp_Variant>
ligprep_COVID_compounds-withfrags-smallmolecules-forvalidation.maegz:52-1

> <i_glide_original_lignum>
218

> <s_i_glide_gridfile>
glide-grid_5RGK_M-PRO_COVID

> <i_i_glide_lignum>
218

> <r_i_docking_score>
-4.9442529353847

> <r_i_glide_ligand_efficiency>
-0.224738769790214

> <r_i_glide_ligand_efficiency_sa>
-0.629726871426448

> <r_i_glide_ligand_efficiency_ln>
-1.20855576341575

> <r_glide_XP_GScore>
-4.9442529353847

> <r_i_glide_gscore>
-4.9442529353847

> <r_i_glide_evdw>
-32.363094329834

> <r_i_glide_ecoul>
-9.22940063476562

> <r_i_glide_energy>
-41.5924949645996

> <r_i_glide_einternal>
0.0

> <r_i_glide_emodel>
-48.368839656778

> <r_glide_XP_HBond>
-0.579982600666621

> <i_i_glide_confnum>
1

> <i_i_glide_posenum>
1

> <r_i_glide_eff_state_penalty>
0.0

> <i_glide_XP_PoseRank>
1

> <MW>
315.08

> <cLogP>
3.16

> <TPSA>
70.14

> <Rotatable Bonds>
3

> <Fraction sp3>
0.12

> <HBA>
5

> <HBD>
1

> <s_epik_Chemistry_Notes>


> <Structure ID>


> <Submission Fragments>


$$$$
ligprep_COVID_compounds-withfrags-smallmolecules-forvalidation.maegz:4
                    3D
 Structure written by MMmdl.
 93 97  0  0  1  0            999 V2000
    2.4313    6.6528   24.4398 C   0  0  0  0  0  0
    3.8556    6.3686   23.9148 C   0  0  0  0  0  0
    4.1741    7.3389   22.7644 C   0  0  0  0  0  0
    4.8888    6.5742   25.0418 C   0  0  0  0  0  0
    3.9750    5.0122   23.3707 N   0  0  0  0  0  0
    3.7597    3.8349   23.9902 C   0  0  0  0  0  0
    3.3301    3.7330   25.1380 O   0  0  0  0  0  0
    4.0448    2.5517   23.1925 C   0  0  2  0  0  0
    5.5589    2.2365   23.3027 C   0  0  0  0  0  0
    5.8817    1.0235   22.5545 N   0  0  0  0  0  0
    7.2913    0.6834   22.7152 C   0  0  0  0  0  0
    7.6504    0.0257   24.0348 C   0  0  0  0  0  0
    6.9977   -1.1504   24.4586 C   0  0  0  0  0  0
    7.4141   -1.7606   25.6565 C   0  0  0  0  0  0
    8.4669   -1.1672   26.3799 C   0  0  0  0  0  0
    9.1122   -0.0520   25.9774 N   0  0  0  0  0  0
    8.6986    0.5317   24.8319 C   0  0  0  0  0  0
    5.6403    1.3455   21.1537 C   0  0  0  0  0  0
    4.1315    1.5188   20.9563 C   0  0  0  0  0  0
    3.5751    2.6358   21.7723 N   0  3  1  0  0  0
    2.0802    2.6755   21.6787 C   0  0  0  0  0  0
    1.5154    3.5444   20.5386 C   0  0  1  0  0  0
    1.6964    5.0684   20.7337 C   0  0  0  0  0  0
    0.6086    5.9537   20.0633 C   0  0  1  0  0  0
    0.8264    7.4570   20.3584 C   0  0  0  0  0  0
   -0.3660    8.3221   19.9837 C   0  0  0  0  0  0
   -1.4844    8.3918   20.8416 C   0  0  0  0  0  0
   -2.5956    9.1835   20.4939 C   0  0  0  0  0  0
   -2.5915    9.9090   19.2849 C   0  0  0  0  0  0
   -1.4757    9.8437   18.4260 C   0  0  0  0  0  0
   -0.3655    9.0511   18.7744 C   0  0  0  0  0  0
    0.4871    5.6398   18.5647 C   0  0  0  0  0  0
   -0.4098    4.9003   18.1658 O   0  0  0  0  0  0
    1.4685    6.1055   17.7855 N   0  0  0  0  0  0
    2.0392    5.3861   16.6580 C   0  0  1  0  0  0
    1.3659    5.5951   15.3228 C   0  0  0  0  0  0
    0.0713    5.1933   14.9437 C   0  0  0  0  0  0
   -0.3353    5.4029   13.6074 C   0  0  0  0  0  0
    0.5459    5.9965   12.6738 C   0  0  0  0  0  0
    1.8434    6.3907   13.0657 C   0  0  0  0  0  0
    2.2279    6.1783   14.4022 C   0  0  0  0  0  0
    3.5600    6.5058   15.0148 C   0  0  0  0  0  0
    3.4900    5.8966   16.4366 C   0  0  2  0  0  0
    4.3752    4.8079   16.5706 O   0  0  0  0  0  0
    2.0337    3.1125   19.3001 O   0  0  0  0  0  0
    2.3372    7.6899   24.7645 H   0  0  0  0  0  0
    2.1787    6.0343   25.3016 H   0  0  0  0  0  0
    1.6730    6.4809   23.6775 H   0  0  0  0  0  0
    3.4784    7.2209   21.9337 H   0  0  0  0  0  0
    5.1781    7.1698   22.3706 H   0  0  0  0  0  0
    4.1208    8.3779   23.0939 H   0  0  0  0  0  0
    4.8696    7.6002   25.4097 H   0  0  0  0  0  0
    5.9029    6.3670   24.6945 H   0  0  0  0  0  0
    4.6953    5.9253   25.8960 H   0  0  0  0  0  0
    4.4973    4.9610   22.4913 H   0  0  0  0  0  0
    3.5027    1.7324   23.6698 H   0  0  0  0  0  0
    6.1694    3.0745   22.9695 H   0  0  0  0  0  0
    5.8359    2.1048   24.3437 H   0  0  0  0  0  0
    7.5747   -0.0233   21.9346 H   0  0  0  0  0  0
    7.8982    1.5778   22.5709 H   0  0  0  0  0  0
    6.1998   -1.5817   23.8711 H   0  0  0  0  0  0
    6.9377   -2.6612   26.0142 H   0  0  0  0  0  0
    8.8099   -1.6090   27.3030 H   0  0  0  0  0  0
    9.2377    1.4175   24.5322 H   0  0  0  0  0  0
    6.1923    2.2361   20.8501 H   0  0  0  0  0  0
    5.9831    0.5259   20.5212 H   0  0  0  0  0  0
    3.9516    1.6853   19.8962 H   0  0  0  0  0  0
    3.6341    0.5820   21.2137 H   0  0  0  0  0  0
    1.6936    1.6606   21.5832 H   0  0  0  0  0  0
    1.6355    3.0387   22.6050 H   0  0  0  0  0  0
    0.4435    3.3390   20.5111 H   0  0  0  0  0  0
    1.6417    5.2726   21.8004 H   0  0  0  0  0  0
    2.7017    5.3750   20.4296 H   0  0  0  0  0  0
   -0.3434    5.6720   20.5157 H   0  0  0  0  0  0
    1.0067    7.5939   21.4266 H   0  0  0  0  0  0
    1.7248    7.8287   19.8644 H   0  0  0  0  0  0
   -1.4943    7.8346   21.7676 H   0  0  0  0  0  0
   -3.4535    9.2316   21.1503 H   0  0  0  0  0  0
   -3.4442   10.5143   19.0169 H   0  0  0  0  0  0
   -1.4747   10.3970   17.4972 H   0  0  0  0  0  0
    0.4827    8.9976   18.1063 H   0  0  0  0  0  0
    2.0921    6.7715   18.2151 H   0  0  0  0  0  0
    2.0293    4.3121   16.8636 H   0  0  0  0  0  0
   -0.5915    4.7143   15.6485 H   0  0  0  0  0  0
   -1.3211    5.0951   13.2926 H   0  0  0  0  0  0
    0.2270    6.1414   11.6519 H   0  0  0  0  0  0
    2.5265    6.8347   12.3558 H   0  0  0  0  0  0
    4.3752    6.1121   14.4171 H   0  0  0  0  0  0
    3.6711    7.5890   15.0597 H   0  0  0  0  0  0
    3.7918    6.6448   17.1729 H   0  0  0  0  0  0
    4.4708    4.6361   17.5099 H   0  0  0  0  0  0
    2.9013    3.4874   19.1795 H   0  0  0  0  0  0
    3.9661    3.4914   21.3897 H   0  0  0  0  0  0
  1  2  1  0  0  0
  1 46  1  0  0  0
  1 47  1  0  0  0
  1 48  1  0  0  0
  2  3  1  0  0  0
  2  4  1  0  0  0
  2  5  1  0  0  0
  3 49  1  0  0  0
  3 50  1  0  0  0
  3 51  1  0  0  0
  4 52  1  0  0  0
  4 53  1  0  0  0
  4 54  1  0  0  0
  5  6  1  0  0  0
  5 55  1  0  0  0
  6  7  2  0  0  0
  6  8  1  0  0  0
  8  9  1  0  0  0
  8 20  1  0  0  0
  8 56  1  0  0  0
  9 10  1  0  0  0
  9 57  1  0  0  0
  9 58  1  0  0  0
 10 11  1  0  0  0
 10 18  1  0  0  0
 11 12  1  0  0  0
 11 59  1  0  0  0
 11 60  1  0  0  0
 12 13  2  0  0  0
 12 17  1  0  0  0
 13 14  1  0  0  0
 13 61  1  0  0  0
 14 15  2  0  0  0
 14 62  1  0  0  0
 15 16  1  0  0  0
 15 63  1  0  0  0
 16 17  2  0  0  0
 17 64  1  0  0  0
 18 19  1  0  0  0
 18 65  1  0  0  0
 18 66  1  0  0  0
 19 20  1  0  0  0
 19 67  1  0  0  0
 19 68  1  0  0  0
 20 21  1  0  0  0
 20 93  1  0  0  0
 21 22  1  0  0  0
 21 69  1  0  0  0
 21 70  1  0  0  0
 22 23  1  0  0  0
 22 45  1  0  0  0
 22 71  1  0  0  0
 23 24  1  0  0  0
 23 72  1  0  0  0
 23 73  1  0  0  0
 24 25  1  0  0  0
 24 32  1  0  0  0
 24 74  1  0  0  0
 25 26  1  0  0  0
 25 75  1  0  0  0
 25 76  1  0  0  0
 26 27  2  0  0  0
 26 31  1  0  0  0
 27 28  1  0  0  0
 27 77  1  0  0  0
 28 29  2  0  0  0
 28 78  1  0  0  0
 29 30  1  0  0  0
 29 79  1  0  0  0
 30 31  2  0  0  0
 30 80  1  0  0  0
 31 81  1  0  0  0
 32 33  2  0  0  0
 32 34  1  0  0  0
 34 35  1  0  0  0
 34 82  1  0  0  0
 35 36  1  0  0  0
 35 43  1  0  0  0
 35 83  1  0  0  0
 36 37  2  0  0  0
 36 41  1  0  0  0
 37 38  1  0  0  0
 37 84  1  0  0  0
 38 39  2  0  0  0
 38 85  1  0  0  0
 39 40  1  0  0  0
 39 86  1  0  0  0
 40 41  2  0  0  0
 40 87  1  0  0  0
 41 42  1  0  0  0
 42 43  1  0  0  0
 42 88  1  0  0  0
 42 89  1  0  0  0
 43 44  1  0  0  0
 43 90  1  0  0  0
 44 91  1  0  0  0
 45 92  1  0  0  0
M  CHG  1  20   1
M  END
> <s_m_entry_id>
572

> <s_m_entry_name>
Compounds-withfrags-for-validation-docking.1913

> <s_m_Source_Path>
/home/rodolpho/data/melina/maestro/glide-dock_XP_5RGK_M-PRO_VALIDATION

> <s_m_Source_File>
glide-dock_XP_5RGK_M-PRO_VALIDATION_pv.maegz

> <i_m_Source_File_Index>
572

> <CID>
Indinavir

> <Potency>
43.13

> <pIC50>
4.36522

> <Source>
https://doi.org/10.1101/2020.03.23.004580

> <smiles>
C(C(C([H])([H])[H])(C([H])([H])[H])N(C(=O)C1(C([H])([H])N(C(C2=C([H])C([H])=C([H])N=C2[H])([H])[H])C([H])([H])C([H])([H])N1C(C(C(C(C(C1=C([H])C([H])=C([H])C([H])=C1[H])([H])[H])(C(=O)N(C1(C2=C(C(=C(C([H])=C2C([H])([H])C1(O[H])[H])[H])[H])[H])[H])[H])[H])([H])[H])(O[H])[H])([H])[H])[H])[H])([H])([H])[H]

> <Outcome>
Inactive

> <StandardizerResult>
Clear Stereo (ID: ClearStereo)
Wedge Clean (ID: WedgeClean)
Mesomerize (ID: Mesomerize)
Tautomerize (ID: Tautomerize)
Aromatize (ID: Aromatize)
Add Explicit Hydrogens (ID: AddExplicitH)
Neutralize (ID: Neutralize)
Clean 2D (ID: Clean2D)

> <chiral flag>
0

> <version>
0

> <i_lp_mmshare_version>
41011

> <i_f3d_flags>
0

> <s_epik_input>
W2NIXTFuW2NIXVtjSF1bY0hdYzFbQ0gyXU4oW0NIMl1bQ0BIXTJDKD1PKVtOSF1DKFtDSDNdKShbQ0gzXSlbQ0gzXSlbQ0gyXVtDSDJdTjJbQ0gyXVtDQEhdKFtPSF0pW0NIMl1bQ0BASF0oW0NIMl1jM1tjSF1bY0hdW2NIXVtjSF1bY0hdMylDKD1PKVtOSF1bQ0BASF00W0NAQEhdKFtPSF0pW0NIMl1jKGM0NSlbY0hdW2NIXVtjSF1bY0hdNQ==

> <s_epik_cmdline>
J2VwaWtfcHl0aG9uJywgJy1waHQnLCAnMC41JywgJy1waCcsICc3LjQnLCAnLXRuJywgJzgnLCAnLW1hJywgJzIwMCcsICctaW1hZScsICc8aW5maWxlLm1hZT4nLCAnLW9tYWUnLCAnPG91dGZpbGUubWFlPic=

> <r_epik_Ionization_Penalty>
0.3395

> <r_epik_Ionization_Penalty_Charging>
0.3352

> <r_epik_Ionization_Penalty_Neutral>
0.0044

> <r_epik_State_Penalty>
0.5191

> <r_epik_Charging_Adjusted_Penalty>
0.854238

> <i_epik_Tot_Q>
1

> <i_epik_Tot_abs_Q>
1

> <s_lp_Force_Field>
OPLS3

> <r_lp_Energy>
55.159

> <b_lp_Chiralities_Consistent>
1

> <s_lp_Variant>
ligprep_COVID_compounds-withfrags-smallmolecules-forvalidation.maegz:4-24

> <i_glide_original_lignum>
43

> <s_i_glide_gridfile>
glide-grid_5RGK_M-PRO_COVID

> <i_i_glide_lignum>
43

> <r_i_docking_score>
-4.92842200912705

> <r_i_glide_ligand_efficiency>
-0.109520489091712

> <r_i_glide_ligand_efficiency_sa>
-0.389552693860489

> <r_i_glide_ligand_efficiency_ln>
-1.02533140606728

> <r_glide_XP_GScore>
-5.44749400912705

> <r_i_glide_gscore>
-5.44749400912705

> <r_i_glide_evdw>
-26.4220027923584

> <r_i_glide_ecoul>
-24.00537109375

> <r_i_glide_energy>
-50.4273738861084

> <r_i_glide_einternal>
4.75682163238525

> <r_i_glide_emodel>
-65.9441953940214

> <r_glide_XP_HBond>
-1.54808836570043

> <i_i_glide_confnum>
8

> <i_i_glide_posenum>
36

> <r_i_glide_eff_state_penalty>
0.519072

> <i_glide_XP_PoseRank>
1

> <r_lp_tautomer_probability>


> <s_epik_Chemistry_Notes>


> <MW>


> <cLogP>


> <TPSA>


> <Rotatable Bonds>


> <Fraction sp3>


> <HBA>


> <HBD>


> <Structure ID>


> <Submission Fragments>


$$$$
ligprep_COVID_compounds-withfrags-smallmolecules-forvalidation.maegz:29
                    3D
 Structure written by MMmdl.
 71 75  0  0  1  0            999 V2000
    8.7007    0.9202   26.0861 O   0  0  0  0  0  0
    8.3097    1.0946   24.9330 C   0  0  0  0  0  0
    8.3391    2.3007   24.3414 N   0  0  0  0  0  0
    8.7773    3.5403   24.9755 C   0  0  0  0  0  0
    9.8274    4.2977   24.1382 C   0  0  0  0  0  0
   11.0544    3.5173   23.6636 C   0  0  0  0  0  0
   11.4033    2.2365   24.1593 C   0  0  0  0  0  0
   12.4718    1.5248   23.5874 C   0  0  0  0  0  0
   13.2546    2.1202   22.5829 C   0  0  0  0  0  0
   12.9876    3.4362   22.1700 C   0  0  0  0  0  0
   13.7752    4.0336   21.2460 F   0  0  0  0  0  0
   11.8855    4.1229   22.6995 C   0  0  0  0  0  0
    7.9069   -0.1210   24.0728 C   0  0  2  0  0  0
    6.7066    0.1390   23.1807 C   0  0  0  0  0  0
    5.7772    1.2058   23.2996 C   0  0  0  0  0  0
    4.7979    1.4171   22.3153 C   0  0  0  0  0  0
    4.7556    0.5439   21.2197 C   0  0  0  0  0  0
    5.5750   -0.5162   21.1034 N   0  0  0  0  0  0
    6.4996   -0.7057   22.0651 C   0  0  0  0  0  0
    7.8396   -1.4158   24.8288 N   0  0  0  0  0  0
    8.9408   -2.2252   24.7234 C   0  0  0  0  0  0
    9.9750   -1.8517   24.1709 O   0  0  0  0  0  0
    8.9594   -3.6236   25.1838 C   0  0  0  0  0  0
    8.8658   -4.2389   26.4076 C   0  0  0  0  0  0
    8.9009   -5.6376   26.1572 C   0  0  0  0  0  0
    9.1682   -5.7634   24.8259 C   0  0  0  0  0  0
    9.1864   -4.5557   24.2217 O   0  0  0  0  0  0
    6.5829   -1.7029   25.5883 C   0  0  2  0  0  0
    6.7456   -1.4849   27.1067 C   0  0  0  0  0  0
    5.4090   -1.6904   27.8275 C   0  0  0  0  0  0
    4.8725   -3.1055   27.5844 C   0  0  0  0  0  0
    4.6192   -3.3659   26.0825 C   0  0  2  0  0  0
    4.0548   -4.7799   25.8509 C   0  0  0  0  0  0
    2.9117   -5.2061   26.5701 C   0  0  0  0  0  0
    2.3605   -6.4853   26.3593 C   0  0  0  0  0  0
    2.9360   -7.3567   25.4172 C   0  0  0  0  0  0
    2.4025   -8.5853   25.2083 F   0  0  0  0  0  0
    4.0646   -6.9441   24.6888 C   0  0  0  0  0  0
    4.6217   -7.7666   23.7704 F   0  0  0  0  0  0
    4.6232   -5.6724   24.9081 C   0  0  0  0  0  0
    5.9101   -3.0686   25.2732 C   0  0  0  0  0  0
    8.0502    2.3565   23.3730 H   0  0  0  0  0  0
    7.9035    4.1762   25.1245 H   0  0  0  0  0  0
    9.1738    3.3500   25.9726 H   0  0  0  0  0  0
    9.3338    4.6922   23.2473 H   0  0  0  0  0  0
   10.1717    5.1698   24.6941 H   0  0  0  0  0  0
   10.8621    1.7736   24.9641 H   0  0  0  0  0  0
   12.7091    0.5340   23.9384 H   0  0  0  0  0  0
   14.0962    1.5844   22.1713 H   0  0  0  0  0  0
   11.6600    5.1164   22.3378 H   0  0  0  0  0  0
    8.7351   -0.1231   23.3702 H   0  0  0  0  0  0
    5.8204    1.9064   24.1184 H   0  0  0  0  0  0
    4.1222    2.2586   22.3737 H   0  0  0  0  0  0
    4.0302    0.6815   20.4308 H   0  0  0  0  0  0
    7.1504   -1.5537   21.9116 H   0  0  0  0  0  0
    8.7420   -3.7728   27.3690 H   0  0  0  0  0  0
    8.7756   -6.4482   26.8624 H   0  0  0  0  0  0
    9.3526   -6.5792   24.1489 H   0  0  0  0  0  0
    5.8451   -0.9636   25.2842 H   0  0  0  0  0  0
    7.4901   -2.1460   27.5308 H   0  0  0  0  0  0
    7.1040   -0.4825   27.3236 H   0  0  0  0  0  0
    5.5283   -1.5004   28.8929 H   0  0  0  0  0  0
    4.6776   -0.9637   27.4723 H   0  0  0  0  0  0
    5.5799   -3.8392   27.9739 H   0  0  0  0  0  0
    3.9577   -3.2235   28.1623 H   0  0  0  0  0  0
    3.8554   -2.6635   25.7458 H   0  0  0  0  0  0
    2.4377   -4.5519   27.2856 H   0  0  0  0  0  0
    1.4929   -6.7986   26.9208 H   0  0  0  0  0  0
    5.4886   -5.4060   24.3214 H   0  0  0  0  0  0
    5.7318   -3.1315   24.2036 H   0  0  0  0  0  0
    6.5631   -3.8911   25.5126 H   0  0  0  0  0  0
  1  2  2  0  0  0
  2  3  1  0  0  0
  2 13  1  0  0  0
  3  4  1  0  0  0
  3 42  1  0  0  0
  4  5  1  0  0  0
  4 43  1  0  0  0
  4 44  1  0  0  0
  5  6  1  0  0  0
  5 45  1  0  0  0
  5 46  1  0  0  0
  6  7  2  0  0  0
  6 12  1  0  0  0
  7  8  1  0  0  0
  7 47  1  0  0  0
  8  9  2  0  0  0
  8 48  1  0  0  0
  9 10  1  0  0  0
  9 49  1  0  0  0
 10 11  1  0  0  0
 10 12  2  0  0  0
 12 50  1  0  0  0
 13 14  1  0  0  0
 13 20  1  0  0  0
 13 51  1  0  0  0
 14 15  2  0  0  0
 14 19  1  0  0  0
 15 16  1  0  0  0
 15 52  1  0  0  0
 16 17  2  0  0  0
 16 53  1  0  0  0
 17 18  1  0  0  0
 17 54  1  0  0  0
 18 19  2  0  0  0
 19 55  1  0  0  0
 20 21  1  0  0  0
 20 28  1  0  0  0
 21 22  2  0  0  0
 21 23  1  0  0  0
 23 24  2  0  0  0
 23 27  1  0  0  0
 24 25  1  0  0  0
 24 56  1  0  0  0
 25 26  2  0  0  0
 25 57  1  0  0  0
 26 27  1  0  0  0
 26 58  1  0  0  0
 28 29  1  0  0  0
 28 41  1  0  0  0
 28 59  1  0  0  0
 29 30  1  0  0  0
 29 60  1  0  0  0
 29 61  1  0  0  0
 30 31  1  0  0  0
 30 62  1  0  0  0
 30 63  1  0  0  0
 31 32  1  0  0  0
 31 64  1  0  0  0
 31 65  1  0  0  0
 32 33  1  0  0  0
 32 41  1  0  0  0
 32 66  1  0  0  0
 33 34  2  0  0  0
 33 40  1  0  0  0
 34 35  1  0  0  0
 34 67  1  0  0  0
 35 36  2  0  0  0
 35 68  1  0  0  0
 36 37  1  0  0  0
 36 38  1  0  0  0
 38 39  1  0  0  0
 38 40  2  0  0  0
 40 69  1  0  0  0
 41 70  1  0  0  0
 41 71  1  0  0  0
M  END
> <s_m_entry_id>
580

> <s_m_entry_name>
Compounds-withfrags-for-validation-docking.1888

> <s_m_Source_Path>
/home/rodolpho/data/melina/maestro/glide-dock_XP_5RGK_M-PRO_VALIDATION

> <s_m_Source_File>
glide-dock_XP_5RGK_M-PRO_VALIDATION_pv.maegz

> <i_m_Source_File_Index>
580

> <CID>
ALP-POS-b0bc6a46-26

> <Potency>
99.5

> <pIC50>
4.00218

> <Source>
Postera

> <smiles>
O=C(NCCc1cccc(F)c1)C(c1cccnc1)N(C(=O)c1ccco1)C1CCCC(c2ccc(F)c(F)c2)C1

> <Outcome>
Inactive

> <StandardizerResult>
Clear Stereo (ID: ClearStereo)
Wedge Clean (ID: WedgeClean)
Mesomerize (ID: Mesomerize)
Tautomerize (ID: Tautomerize)
Aromatize (ID: Aromatize)
Add Explicit Hydrogens (ID: AddExplicitH)
Neutralize (ID: Neutralize)
Clean 2D (ID: Clean2D)

> <chiral flag>
0

> <version>
0

> <i_lp_mmshare_version>
41011

> <i_f3d_flags>
0

> <s_epik_input>
RmMoW2NIXTEpW2NIXVtjSF1bY0hdYzFbQ0gyXVtDSDJdW05IXUMoPU8pW0NASF0oYzJbY0hdW2NIXVtjSF1uW2NIXTIpTihDKD1PKWMzW2NIXVtjSF1bY0hdbzMpW0NAQEhdNFtDSDJdW0NIMl1bQ0gyXVtDQEBIXShbQ0gyXTQpYzVbY0hdW2NIXWMoRiljKEYpW2NIXTU=

> <s_epik_cmdline>
J2VwaWtfcHl0aG9uJywgJy1waHQnLCAnMC41JywgJy1waCcsICc3LjQnLCAnLXRuJywgJzgnLCAnLW1hJywgJzIwMCcsICctaW1hZScsICc8aW5maWxlLm1hZT4nLCAnLW9tYWUnLCAnPG91dGZpbGUubWFlPic=

> <r_lp_tautomer_probability>
1.0

> <r_epik_Ionization_Penalty>
8.0E-4

> <r_epik_Ionization_Penalty_Charging>
0.0

> <r_epik_Ionization_Penalty_Neutral>
8.0E-4

> <r_epik_State_Penalty>
0.0

> <r_epik_Charging_Adjusted_Penalty>
0.0

> <i_epik_Tot_Q>
0

> <i_epik_Tot_abs_Q>
0

> <s_lp_Force_Field>
OPLS3

> <r_lp_Energy>
65.4533

> <b_lp_Chiralities_Consistent>
1

> <s_lp_Variant>
ligprep_COVID_compounds-withfrags-smallmolecules-forvalidation.maegz:29-6

> <i_glide_original_lignum>
158

> <s_i_glide_gridfile>
glide-grid_5RGK_M-PRO_COVID

> <i_i_glide_lignum>
158

> <r_i_docking_score>
-4.91695303462287

> <r_i_glide_ligand_efficiency>
-0.11992568377129

> <r_i_glide_ligand_efficiency_sa>
-0.413529809832957

> <r_i_glide_ligand_efficiency_ln>
-1.04314794916476

> <r_glide_XP_GScore>
-4.91695303462287

> <r_i_glide_gscore>
-4.91695303462287

> <r_i_glide_evdw>
-43.3548736572266

> <r_i_glide_ecoul>
-8.77717113494873

> <r_i_glide_energy>
-52.1320447921753

> <r_i_glide_einternal>
10.6316089630127

> <r_i_glide_emodel>
-63.549852180745

> <r_glide_XP_HBond>
-0.586922992479843

> <i_i_glide_confnum>
10

> <i_i_glide_posenum>
1

> <r_i_glide_eff_state_penalty>
0.0

> <i_glide_XP_PoseRank>
1

> <MW>
561.22

> <cLogP>
6.36

> <TPSA>
75.44

> <Rotatable Bonds>
9

> <Fraction sp3>
0.28

> <HBA>
4

> <HBD>
1

> <s_epik_Chemistry_Notes>


> <Structure ID>


> <Submission Fragments>


$$$$
ligprep_COVID_compounds-withfrags-smallmolecules-forvalidation.maegz:4
                    3D
 Structure written by MMmdl.
 93 97  0  0  1  0            999 V2000
    5.3457    9.2123   20.7692 C   0  0  0  0  0  0
    5.2316    8.9907   22.2875 C   0  0  0  0  0  0
    5.7002   10.2564   23.0386 C   0  0  0  0  0  0
    3.7605    8.6737   22.6334 C   0  0  0  0  0  0
    6.0736    7.8353   22.6136 N   0  0  0  0  0  0
    6.3346    7.3181   23.8270 C   0  0  0  0  0  0
    5.9718    7.8238   24.8886 O   0  0  0  0  0  0
    7.0545    5.9643   23.8495 C   0  0  1  0  0  0
    8.4341    6.1493   24.5310 C   0  0  0  0  0  0
    9.1768    4.8942   24.6607 N   0  0  0  0  0  0
    9.6168    4.3768   23.3570 C   0  0  0  0  0  0
   10.7570    3.3638   23.3710 C   0  0  0  0  0  0
   11.9845    3.6955   22.7610 C   0  0  0  0  0  0
   12.9903    2.7169   22.6792 C   0  0  0  0  0  0
   12.7425    1.4464   23.2301 C   0  0  0  0  0  0
   11.5744    1.1159   23.8189 N   0  0  0  0  0  0
   10.6088    2.0567   23.8832 C   0  0  0  0  0  0
    8.3557    3.9940   25.4765 C   0  0  0  0  0  0
    6.9948    3.7039   24.8104 C   0  0  0  0  0  0
    6.2232    4.9535   24.5693 N   0  3  2  0  0  0
    4.9346    4.6726   23.8684 C   0  0  0  0  0  0
    3.6944    4.6767   24.7695 C   0  0  1  0  0  0
    2.3696    4.9974   24.0238 C   0  0  0  0  0  0
    2.1830    4.5252   22.5476 C   0  0  2  0  0  0
    0.8020    5.0176   22.0419 C   0  0  0  0  0  0
    0.5369    4.9847   20.5394 C   0  0  0  0  0  0
    1.5757    5.0516   19.5805 C   0  0  0  0  0  0
    1.2789    5.0663   18.2044 C   0  0  0  0  0  0
   -0.0596    5.0360   17.7714 C   0  0  0  0  0  0
   -1.1005    4.9736   18.7172 C   0  0  0  0  0  0
   -0.8017    4.9434   20.0930 C   0  0  0  0  0  0
    2.3327    3.0027   22.3704 C   0  0  0  0  0  0
    1.5667    2.2331   22.9491 O   0  0  0  0  0  0
    3.3492    2.5695   21.6069 N   0  0  0  0  0  0
    3.6918    1.1687   21.3488 C   0  0  1  0  0  0
    4.6912    1.0416   20.2345 C   0  0  0  0  0  0
    4.5156    1.4342   18.8976 C   0  0  0  0  0  0
    5.5745    1.2130   17.9902 C   0  0  0  0  0  0
    6.7780    0.6172   18.4303 C   0  0  0  0  0  0
    6.9379    0.2362   19.7743 C   0  0  0  0  0  0
    5.8841    0.4776   20.6652 C   0  0  0  0  0  0
    5.8766    0.1979   22.1377 C   0  0  0  0  0  0
    4.4029    0.4322   22.5326 C   0  0  1  0  0  0
    4.2733    1.0706   23.7779 O   0  0  0  0  0  0
    3.5742    3.4183   25.3864 O   0  0  0  0  0  0
    4.7382   10.0582   20.4427 H   0  0  0  0  0  0
    5.0109    8.3358   20.2120 H   0  0  0  0  0  0
    6.3739    9.4182   20.4663 H   0  0  0  0  0  0
    6.7781   10.4011   22.9630 H   0  0  0  0  0  0
    5.4621   10.2097   24.1043 H   0  0  0  0  0  0
    5.2164   11.1525   22.6489 H   0  0  0  0  0  0
    3.1006    9.4881   22.3333 H   0  0  0  0  0  0
    3.6163    8.5213   23.7028 H   0  0  0  0  0  0
    3.4188    7.7704   22.1269 H   0  0  0  0  0  0
    6.3942    7.3040   21.8157 H   0  0  0  0  0  0
    7.2008    5.6250   22.8221 H   0  0  0  0  0  0
    9.0372    6.8664   23.9698 H   0  0  0  0  0  0
    8.3068    6.5789   25.5260 H   0  0  0  0  0  0
    8.7937    3.9641   22.7746 H   0  0  0  0  0  0
    9.9683    5.2303   22.7751 H   0  0  0  0  0  0
   12.1432    4.6740   22.3319 H   0  0  0  0  0  0
   13.9370    2.9320   22.2057 H   0  0  0  0  0  0
   13.4956    0.6719   23.1854 H   0  0  0  0  0  0
    9.6725    1.7231   24.3000 H   0  0  0  0  0  0
    8.8860    3.0716   25.6953 H   0  0  0  0  0  0
    8.1915    4.4569   26.4519 H   0  0  0  0  0  0
    7.1358    3.1610   23.8750 H   0  0  0  0  0  0
    6.4126    3.0364   25.4432 H   0  0  0  0  0  0
    4.7604    5.4173   23.0964 H   0  0  0  0  0  0
    5.0076    3.7155   23.3626 H   0  0  0  0  0  0
    3.8199    5.4167   25.5600 H   0  0  0  0  0  0
    1.5229    4.6643   24.6276 H   0  0  0  0  0  0
    2.2858    6.0855   24.0138 H   0  0  0  0  0  0
    2.9543    5.0190   21.9608 H   0  0  0  0  0  0
    0.0126    4.4573   22.5465 H   0  0  0  0  0  0
    0.6594    6.0550   22.3439 H   0  0  0  0  0  0
    2.6120    5.0990   19.8732 H   0  0  0  0  0  0
    2.0824    5.1073   17.4827 H   0  0  0  0  0  0
   -0.2872    5.0535   16.7152 H   0  0  0  0  0  0
   -2.1278    4.9425   18.3861 H   0  0  0  0  0  0
   -1.6097    4.9010   20.8072 H   0  0  0  0  0  0
    3.9586    3.2602   21.1759 H   0  0  0  0  0  0
    2.7855    0.6402   21.0547 H   0  0  0  0  0  0
    3.5981    1.9024   18.5704 H   0  0  0  0  0  0
    5.4604    1.5210   16.9615 H   0  0  0  0  0  0
    7.6148    0.4771   17.7699 H   0  0  0  0  0  0
    7.8667   -0.1900   20.1190 H   0  0  0  0  0  0
    6.2117   -0.8157   22.3567 H   0  0  0  0  0  0
    6.5464    0.9022   22.6309 H   0  0  0  0  0  0
    3.9760   -0.5591   22.6388 H   0  0  0  0  0  0
    3.3912    0.8812   24.0753 H   0  0  0  0  0  0
    3.4088    2.7755   24.7111 H   0  0  0  0  0  0
    6.0014    5.3657   25.4657 H   0  0  0  0  0  0
  1  2  1  0  0  0
  1 46  1  0  0  0
  1 47  1  0  0  0
  1 48  1  0  0  0
  2  3  1  0  0  0
  2  4  1  0  0  0
  2  5  1  0  0  0
  3 49  1  0  0  0
  3 50  1  0  0  0
  3 51  1  0  0  0
  4 52  1  0  0  0
  4 53  1  0  0  0
  4 54  1  0  0  0
  5  6  1  0  0  0
  5 55  1  0  0  0
  6  7  2  0  0  0
  6  8  1  0  0  0
  8  9  1  0  0  0
  8 20  1  0  0  0
  8 56  1  0  0  0
  9 10  1  0  0  0
  9 57  1  0  0  0
  9 58  1  0  0  0
 10 11  1  0  0  0
 10 18  1  0  0  0
 11 12  1  0  0  0
 11 59  1  0  0  0
 11 60  1  0  0  0
 12 13  2  0  0  0
 12 17  1  0  0  0
 13 14  1  0  0  0
 13 61  1  0  0  0
 14 15  2  0  0  0
 14 62  1  0  0  0
 15 16  1  0  0  0
 15 63  1  0  0  0
 16 17  2  0  0  0
 17 64  1  0  0  0
 18 19  1  0  0  0
 18 65  1  0  0  0
 18 66  1  0  0  0
 19 20  1  0  0  0
 19 67  1  0  0  0
 19 68  1  0  0  0
 20 21  1  0  0  0
 20 93  1  0  0  0
 21 22  1  0  0  0
 21 69  1  0  0  0
 21 70  1  0  0  0
 22 23  1  0  0  0
 22 45  1  0  0  0
 22 71  1  0  0  0
 23 24  1  0  0  0
 23 72  1  0  0  0
 23 73  1  0  0  0
 24 25  1  0  0  0
 24 32  1  0  0  0
 24 74  1  0  0  0
 25 26  1  0  0  0
 25 75  1  0  0  0
 25 76  1  0  0  0
 26 27  2  0  0  0
 26 31  1  0  0  0
 27 28  1  0  0  0
 27 77  1  0  0  0
 28 29  2  0  0  0
 28 78  1  0  0  0
 29 30  1  0  0  0
 29 79  1  0  0  0
 30 31  2  0  0  0
 30 80  1  0  0  0
 31 81  1  0  0  0
 32 33  2  0  0  0
 32 34  1  0  0  0
 34 35  1  0  0  0
 34 82  1  0  0  0
 35 36  1  0  0  0
 35 43  1  0  0  0
 35 83  1  0  0  0
 36 37  2  0  0  0
 36 41  1  0  0  0
 37 38  1  0  0  0
 37 84  1  0  0  0
 38 39  2  0  0  0
 38 85  1  0  0  0
 39 40  1  0  0  0
 39 86  1  0  0  0
 40 41  2  0  0  0
 40 87  1  0  0  0
 41 42  1  0  0  0
 42 43  1  0  0  0
 42 88  1  0  0  0
 42 89  1  0  0  0
 43 44  1  0  0  0
 43 90  1  0  0  0
 44 91  1  0  0  0
 45 92  1  0  0  0
M  CHG  1  20   1
M  END
> <s_m_entry_id>
583

> <s_m_entry_name>
Compounds-withfrags-for-validation-docking.1913

> <s_m_Source_Path>
/home/rodolpho/data/melina/maestro/glide-dock_XP_5RGK_M-PRO_VALIDATION

> <s_m_Source_File>
glide-dock_XP_5RGK_M-PRO_VALIDATION_pv.maegz

> <i_m_Source_File_Index>
583

> <CID>
Indinavir

> <Potency>
43.13

> <pIC50>
4.36522

> <Source>
https://doi.org/10.1101/2020.03.23.004580

> <smiles>
C(C(C([H])([H])[H])(C([H])([H])[H])N(C(=O)C1(C([H])([H])N(C(C2=C([H])C([H])=C([H])N=C2[H])([H])[H])C([H])([H])C([H])([H])N1C(C(C(C(C(C1=C([H])C([H])=C([H])C([H])=C1[H])([H])[H])(C(=O)N(C1(C2=C(C(=C(C([H])=C2C([H])([H])C1(O[H])[H])[H])[H])[H])[H])[H])[H])([H])[H])(O[H])[H])([H])[H])[H])[H])([H])([H])[H]

> <Outcome>
Inactive

> <StandardizerResult>
Clear Stereo (ID: ClearStereo)
Wedge Clean (ID: WedgeClean)
Mesomerize (ID: Mesomerize)
Tautomerize (ID: Tautomerize)
Aromatize (ID: Aromatize)
Add Explicit Hydrogens (ID: AddExplicitH)
Neutralize (ID: Neutralize)
Clean 2D (ID: Clean2D)

> <chiral flag>
0

> <version>
0

> <i_lp_mmshare_version>
41011

> <i_f3d_flags>
0

> <s_epik_input>
W2NIXTFuW2NIXVtjSF1bY0hdYzFbQ0gyXU4oW0NIMl1bQ0BASF0yQyg9TylbTkhdQyhbQ0gzXSkoW0NIM10pW0NIM10pW0NIMl1bQ0gyXU4yW0NIMl1bQ0BIXShbT0hdKVtDSDJdW0NASF0oW0NIMl1jM1tjSF1bY0hdW2NIXVtjSF1bY0hdMylDKD1PKVtOSF1bQ0BASF00W0NASF0oW09IXSlbQ0gyXWMoYzQ1KVtjSF1bY0hdW2NIXVtjSF01

> <s_epik_cmdline>
J2VwaWtfcHl0aG9uJywgJy1waHQnLCAnMC41JywgJy1waCcsICc3LjQnLCAnLXRuJywgJzgnLCAnLW1hJywgJzIwMCcsICctaW1hZScsICc8aW5maWxlLm1hZT4nLCAnLW9tYWUnLCAnPG91dGZpbGUubWFlPic=

> <r_epik_Ionization_Penalty>
0.3395

> <r_epik_Ionization_Penalty_Charging>
0.3352

> <r_epik_Ionization_Penalty_Neutral>
0.0044

> <r_epik_State_Penalty>
0.5191

> <r_epik_Charging_Adjusted_Penalty>
0.854238

> <i_epik_Tot_Q>
1

> <i_epik_Tot_abs_Q>
1

> <s_lp_Force_Field>
OPLS3

> <r_lp_Energy>
55.1653

> <b_lp_Chiralities_Consistent>
1

> <s_lp_Variant>
ligprep_COVID_compounds-withfrags-smallmolecules-forvalidation.maegz:4-25

> <i_glide_original_lignum>
44

> <s_i_glide_gridfile>
glide-grid_5RGK_M-PRO_COVID

> <i_i_glide_lignum>
44

> <r_i_docking_score>
-4.91563212802347

> <r_i_glide_ligand_efficiency>
-0.109236269511633

> <r_i_glide_ligand_efficiency_sa>
-0.388541755140383

> <r_i_glide_ligand_efficiency_ln>
-1.02267054083474

> <r_glide_XP_GScore>
-5.43470412802348

> <r_i_glide_gscore>
-5.43470412802348

> <r_i_glide_evdw>
-42.3705291748047

> <r_i_glide_ecoul>
-14.3661575317383

> <r_i_glide_energy>
-56.736686706543

> <r_i_glide_einternal>
5.88340139389038

> <r_i_glide_emodel>
-71.9763805559409

> <r_glide_XP_HBond>
-2.97447898908891

> <i_i_glide_confnum>
1

> <i_i_glide_posenum>
1

> <r_i_glide_eff_state_penalty>
0.519072

> <i_glide_XP_PoseRank>
1

> <r_lp_tautomer_probability>


> <s_epik_Chemistry_Notes>


> <MW>


> <cLogP>


> <TPSA>


> <Rotatable Bonds>


> <Fraction sp3>


> <HBA>


> <HBD>


> <Structure ID>


> <Submission Fragments>


$$$$
ligprep_COVID_compounds-withfrags-smallmolecules-forvalidation.maegz:16
                    3D
 Structure written by MMmdl.
 74 77  0  0  1  0            999 V2000
    1.9721    0.8584   27.8900 C   0  0  0  0  0  0
    2.7750    0.3598   26.8294 O   0  0  0  0  0  0
    3.1752   -0.9638   26.8512 C   0  0  0  0  0  0
    2.8507   -1.8251   27.9325 C   0  0  0  0  0  0
    3.2573   -3.1693   27.9368 C   0  0  0  0  0  0
    3.9852   -3.6786   26.8535 C   0  0  0  0  0  0
    4.3112   -2.8388   25.7756 C   0  0  0  0  0  0
    3.9472   -1.4659   25.7599 C   0  0  0  0  0  0
    4.2860   -0.5637   24.5685 C   0  0  0  0  0  0
    3.3996    0.2053   24.1829 O   0  0  0  0  0  0
    5.5312   -0.5637   23.9717 N   0  0  0  0  0  0
    6.5702   -1.4948   24.3483 C   0  0  0  0  0  0
    7.1749   -2.3536   23.4026 C   0  0  0  0  0  0
    8.0631   -3.3564   23.7935 C   0  0  0  0  0  0
    8.4330   -3.5083   25.1408 C   0  0  0  0  0  0
    9.4352   -4.6054   25.4940 C   0  0  0  0  0  0
    8.8974   -5.9788   25.0625 C   0  0  0  0  0  0
    9.7032   -4.6868   27.0046 C   0  0  0  0  0  0
   10.7342   -4.3114   24.7244 C   0  0  0  0  0  0
    7.9044   -2.6032   26.0896 C   0  0  0  0  0  0
    7.0030   -1.6021   25.6930 C   0  0  0  0  0  0
    5.8559    0.5886   23.0463 C   0  0  1  0  0  0
    7.1782    1.3363   23.3707 C   0  0  0  0  0  0
    8.1817    0.7311   23.7451 O   0  0  0  0  0  0
    7.1708    2.6725   23.2004 N   0  0  0  0  0  0
    8.3123    3.5803   23.1447 C   0  0  0  0  0  0
    9.3342    3.4664   24.2979 C   0  0  0  0  0  0
   10.7100    3.1015   23.7707 C   0  0  0  0  0  0
   11.1884    1.7799   23.8797 C   0  0  0  0  0  0
   12.4188    1.4261   23.2963 C   0  0  0  0  0  0
   13.1749    2.3956   22.6125 C   0  0  0  0  0  0
   12.7234    3.7252   22.5328 C   0  0  0  0  0  0
   13.4698    4.6594   21.8969 F   0  0  0  0  0  0
   11.4907    4.0767   23.1118 C   0  0  0  0  0  0
    5.8323    0.2957   21.5467 C   0  0  0  0  0  0
    5.9749    1.3104   20.5731 C   0  0  0  0  0  0
    5.9064    1.0362   19.1908 C   0  0  0  0  0  0
    5.7359   -0.2867   18.7788 C   0  0  0  0  0  0
    5.5763   -1.2769   19.6628 N   0  0  0  0  0  0
    5.5749   -0.9637   20.9763 C   0  0  0  0  0  0
    1.7290    1.9020   27.6940 H   0  0  0  0  0  0
    2.5004    0.8169   28.8441 H   0  0  0  0  0  0
    1.0316    0.3116   27.9690 H   0  0  0  0  0  0
    2.2864   -1.4786   28.7840 H   0  0  0  0  0  0
    3.0058   -3.8077   28.7707 H   0  0  0  0  0  0
    4.2974   -4.7131   26.8477 H   0  0  0  0  0  0
    4.8631   -3.2847   24.9689 H   0  0  0  0  0  0
    6.9957   -2.3218   22.3518 H   0  0  0  0  0  0
    8.4623   -4.0064   23.0295 H   0  0  0  0  0  0
    9.5751   -6.7736   25.3779 H   0  0  0  0  0  0
    8.7832   -6.0637   23.9820 H   0  0  0  0  0  0
    7.9268   -6.1729   25.5199 H   0  0  0  0  0  0
    8.8272   -5.0318   27.5549 H   0  0  0  0  0  0
    9.9749   -3.7207   27.4060 H   0  0  0  0  0  0
   10.5217   -5.3637   27.2293 H   0  0  0  0  0  0
   11.4848   -5.0894   24.8587 H   0  0  0  0  0  0
   11.1748   -3.3636   24.9707 H   0  0  0  0  0  0
   10.5427   -4.1637   23.6716 H   0  0  0  0  0  0
    8.1502   -2.6601   27.1365 H   0  0  0  0  0  0
    6.5887   -0.9636   26.4562 H   0  0  0  0  0  0
    5.1202    1.3805   23.1901 H   0  0  0  0  0  0
    6.3157    3.0894   22.8488 H   0  0  0  0  0  0
    8.7892    3.4557   22.1722 H   0  0  0  0  0  0
    7.9081    4.5932   23.1278 H   0  0  0  0  0  0
    9.4109    4.4286   24.8050 H   0  0  0  0  0  0
    9.0193    2.7601   25.0673 H   0  0  0  0  0  0
   10.6046    1.0268   24.3891 H   0  0  0  0  0  0
   12.7800    0.4107   23.3679 H   0  0  0  0  0  0
   14.1228    2.1252   22.1710 H   0  0  0  0  0  0
   11.1284    5.0895   23.0186 H   0  0  0  0  0  0
    6.1198    2.3231   20.8890 H   0  0  0  0  0  0
    5.9748    1.8343   18.4672 H   0  0  0  0  0  0
    5.6914   -0.5474   17.7310 H   0  0  0  0  0  0
    5.2678   -1.7637   21.6091 H   0  0  0  0  0  0
  1  2  1  0  0  0
  1 41  1  0  0  0
  1 42  1  0  0  0
  1 43  1  0  0  0
  2  3  1  0  0  0
  3  4  2  0  0  0
  3  8  1  0  0  0
  4  5  1  0  0  0
  4 44  1  0  0  0
  5  6  2  0  0  0
  5 45  1  0  0  0
  6  7  1  0  0  0
  6 46  1  0  0  0
  7  8  2  0  0  0
  7 47  1  0  0  0
  8  9  1  0  0  0
  9 10  2  0  0  0
  9 11  1  0  0  0
 11 12  1  0  0  0
 11 22  1  0  0  0
 12 13  2  0  0  0
 12 21  1  0  0  0
 13 14  1  0  0  0
 13 48  1  0  0  0
 14 15  2  0  0  0
 14 49  1  0  0  0
 15 16  1  0  0  0
 15 20  1  0  0  0
 16 17  1  0  0  0
 16 18  1  0  0  0
 16 19  1  0  0  0
 17 50  1  0  0  0
 17 51  1  0  0  0
 17 52  1  0  0  0
 18 53  1  0  0  0
 18 54  1  0  0  0
 18 55  1  0  0  0
 19 56  1  0  0  0
 19 57  1  0  0  0
 19 58  1  0  0  0
 20 21  2  0  0  0
 20 59  1  0  0  0
 21 60  1  0  0  0
 22 23  1  0  0  0
 22 35  1  0  0  0
 22 61  1  0  0  0
 23 24  2  0  0  0
 23 25  1  0  0  0
 25 26  1  0  0  0
 25 62  1  0  0  0
 26 27  1  0  0  0
 26 63  1  0  0  0
 26 64  1  0  0  0
 27 28  1  0  0  0
 27 65  1  0  0  0
 27 66  1  0  0  0
 28 29  2  0  0  0
 28 34  1  0  0  0
 29 30  1  0  0  0
 29 67  1  0  0  0
 30 31  2  0  0  0
 30 68  1  0  0  0
 31 32  1  0  0  0
 31 69  1  0  0  0
 32 33  1  0  0  0
 32 34  2  0  0  0
 34 70  1  0  0  0
 35 36  2  0  0  0
 35 40  1  0  0  0
 36 37  1  0  0  0
 36 71  1  0  0  0
 37 38  2  0  0  0
 37 72  1  0  0  0
 38 39  1  0  0  0
 38 73  1  0  0  0
 39 40  2  0  0  0
 40 74  1  0  0  0
M  END
> <s_m_entry_id>
599

> <s_m_entry_name>
Compounds-withfrags-for-validation-docking.1901

> <s_m_Source_Path>
/home/rodolpho/data/melina/maestro/glide-dock_XP_5RGK_M-PRO_VALIDATION

> <s_m_Source_File>
glide-dock_XP_5RGK_M-PRO_VALIDATION_pv.maegz

> <i_m_Source_File_Index>
599

> <CID>
ALP-POS-02c6a514-40

> <Potency>
99.5

> <pIC50>
4.00218

> <Source>
Postera

> <smiles>
COc1ccccc1C(=O)N(c1ccc(C(C)(C)C)cc1)C(C(=O)NCCc1cccc(F)c1)c1cccnc1

> <Outcome>
Inactive

> <StandardizerResult>
Clear Stereo (ID: ClearStereo)
Wedge Clean (ID: WedgeClean)
Mesomerize (ID: Mesomerize)
Tautomerize (ID: Tautomerize)
Aromatize (ID: Aromatize)
Add Explicit Hydrogens (ID: AddExplicitH)
Neutralize (ID: Neutralize)
Clean 2D (ID: Clean2D)

> <chiral flag>
0

> <version>
0

> <i_lp_mmshare_version>
41011

> <i_f3d_flags>
0

> <s_epik_input>
W0NIM11PYzFbY0hdW2NIXVtjSF1bY0hdYzFDKD1PKU4oYzJbY0hdW2NIXWMoQyhbQ0gzXSkoW0NIM10pW0NIM10pW2NIXVtjSF0yKVtDQEhdKGMzW2NIXVtjSF1bY0hdbltjSF0zKUMoPU8pW05IXVtDSDJdW0NIMl1jNFtjSF1bY0hdW2NIXWMoRilbY0hdNA==

> <s_epik_cmdline>
J2VwaWtfcHl0aG9uJywgJy1waHQnLCAnMC41JywgJy1waCcsICc3LjQnLCAnLXRuJywgJzgnLCAnLW1hJywgJzIwMCcsICctaW1hZScsICc8aW5maWxlLm1hZT4nLCAnLW9tYWUnLCAnPG91dGZpbGUubWFlPic=

> <r_lp_tautomer_probability>
1.0

> <r_epik_Ionization_Penalty>
6.0E-4

> <r_epik_Ionization_Penalty_Charging>
0.0

> <r_epik_Ionization_Penalty_Neutral>
6.0E-4

> <r_epik_State_Penalty>
0.0

> <r_epik_Charging_Adjusted_Penalty>
0.0

> <i_epik_Tot_Q>
0

> <i_epik_Tot_abs_Q>
0

> <s_lp_Force_Field>
OPLS3

> <r_lp_Energy>
80.4967

> <b_lp_Chiralities_Consistent>
1

> <s_lp_Variant>
ligprep_COVID_compounds-withfrags-smallmolecules-forvalidation.maegz:16-1

> <i_glide_original_lignum>
125

> <s_i_glide_gridfile>
glide-grid_5RGK_M-PRO_COVID

> <i_i_glide_lignum>
125

> <r_i_docking_score>
-4.90061081110387

> <r_i_glide_ligand_efficiency>
-0.122515270277597

> <r_i_glide_ligand_efficiency_sa>
-0.418996330035361

> <r_i_glide_ligand_efficiency_ln>
-1.04515606747027

> <r_glide_XP_GScore>
-4.90061081110387

> <r_i_glide_gscore>
-4.90061081110387

> <r_i_glide_evdw>
-30.1328887939453

> <r_i_glide_ecoul>
-9.38496112823486

> <r_i_glide_energy>
-39.5178499221802

> <r_i_glide_einternal>
11.5232601165771

> <r_i_glide_emodel>
-58.403190178545

> <r_glide_XP_HBond>
-0.267090581778471

> <i_i_glide_confnum>
2

> <i_i_glide_posenum>
9

> <r_i_glide_eff_state_penalty>
0.0

> <i_glide_XP_PoseRank>
1

> <MW>
539.26

> <cLogP>
6.27

> <TPSA>
71.53

> <Rotatable Bonds>
9

> <Fraction sp3>
0.24

> <HBA>
4

> <HBD>
1

> <s_epik_Chemistry_Notes>


> <Structure ID>


> <Submission Fragments>


$$$$
ligprep_COVID_compounds-withfrags-smallmolecules-forvalidation.maegz:18
                    3D
 Structure written by MMmdl.
 71 74  0  0  1  0            999 V2000
    9.1907   -5.5023   25.0015 C   0  0  0  0  0  0
    8.1021   -4.7775   25.8265 C   0  0  0  0  0  0
    6.7966   -5.5905   25.7987 C   0  0  0  0  0  0
    8.5913   -4.7259   27.2895 C   0  0  0  0  0  0
    7.8133   -3.3860   25.2396 C   0  0  0  0  0  0
    7.8416   -2.2124   26.0277 C   0  0  0  0  0  0
    7.5095   -0.9636   25.4724 C   0  0  0  0  0  0
    7.1579   -0.8367   24.1042 C   0  0  0  0  0  0
    6.7955    0.4348   23.5278 N   0  0  0  0  0  0
    7.4917    1.6001   23.7706 C   0  0  0  0  0  0
    6.9169    2.6864   23.7751 O   0  0  0  0  0  0
    9.0097    1.6714   23.9508 C   0  0  0  0  0  0
    9.8718    0.5630   24.1702 C   0  0  0  0  0  0
   11.2669    0.7044   24.1639 C   0  0  0  0  0  0
   11.8588    1.9419   23.8846 C   0  0  0  0  0  0
   11.0416    3.0677   23.6942 C   0  0  0  0  0  0
   11.6562    4.3475   23.3747 C   0  0  0  0  0  0
   12.1539    5.3611   23.1246 N   0  0  0  0  0  0
    9.6374    2.9381   23.7711 C   0  0  0  0  0  0
    5.4722    0.4414   22.7947 C   0  0  1  0  0  0
    4.3350    1.3342   23.3701 C   0  0  0  0  0  0
    3.5521    0.8319   24.1735 O   0  0  0  0  0  0
    4.1980    2.6130   22.9719 N   0  0  0  0  0  0
    3.1123    3.4812   23.4084 C   0  0  0  0  0  0
    3.1752    4.8469   22.7120 C   0  0  0  0  0  0
    2.0180    5.7485   23.0988 C   0  0  0  0  0  0
    0.9482    5.9540   22.2002 C   0  0  0  0  0  0
   -0.1264    6.7902   22.5610 C   0  0  0  0  0  0
   -0.1360    7.4226   23.8204 C   0  0  0  0  0  0
    0.9321    7.2218   24.7184 C   0  0  0  0  0  0
    0.9244    7.8290   25.9291 F   0  0  0  0  0  0
    2.0065    6.3862   24.3583 C   0  0  0  0  0  0
    5.5604    0.5981   21.2806 C   0  0  0  0  0  0
    6.7223    0.2203   20.5733 C   0  0  0  0  0  0
    6.7736    0.2362   19.1678 C   0  0  0  0  0  0
    5.6328    0.6642   18.4723 C   0  0  0  0  0  0
    4.5043    1.0361   19.0981 N   0  0  0  0  0  0
    4.4764    0.9894   20.4451 C   0  0  0  0  0  0
    7.1332   -2.0125   23.3210 C   0  0  0  0  0  0
    7.4570   -3.2624   23.8784 C   0  0  0  0  0  0
    9.4335   -6.4747   25.4343 H   0  0  0  0  0  0
   10.1156   -4.9238   24.9726 H   0  0  0  0  0  0
    8.8847   -5.6837   23.9719 H   0  0  0  0  0  0
    6.4386   -5.7588   24.7828 H   0  0  0  0  0  0
    6.0027   -5.0825   26.3473 H   0  0  0  0  0  0
    6.9347   -6.5633   26.2646 H   0  0  0  0  0  0
    8.7741   -5.7305   27.6737 H   0  0  0  0  0  0
    7.8490   -4.2770   27.9505 H   0  0  0  0  0  0
    9.5223   -4.1675   27.3789 H   0  0  0  0  0  0
    8.1028   -2.2403   27.0728 H   0  0  0  0  0  0
    7.5722   -0.0926   26.1094 H   0  0  0  0  0  0
    9.5476   -0.4516   24.2767 H   0  0  0  0  0  0
   11.8821   -0.1636   24.3273 H   0  0  0  0  0  0
   12.9348    2.0213   23.8194 H   0  0  0  0  0  0
    9.0392    3.8210   23.5839 H   0  0  0  0  0  0
    5.0440   -0.5529   22.9334 H   0  0  0  0  0  0
    4.8868    3.0188   22.3408 H   0  0  0  0  0  0
    2.1584    2.9992   23.1828 H   0  0  0  0  0  0
    3.1604    3.6061   24.4919 H   0  0  0  0  0  0
    4.1068    5.3525   22.9704 H   0  0  0  0  0  0
    3.1763    4.7131   21.6285 H   0  0  0  0  0  0
    0.9522    5.4708   21.2332 H   0  0  0  0  0  0
   -0.9432    6.9474   21.8704 H   0  0  0  0  0  0
   -0.9588    8.0655   24.0964 H   0  0  0  0  0  0
    2.8205    6.2343   25.0526 H   0  0  0  0  0  0
    7.5750   -0.1346   21.1177 H   0  0  0  0  0  0
    7.6660   -0.0741   18.6451 H   0  0  0  0  0  0
    5.6215    0.6984   17.3913 H   0  0  0  0  0  0
    3.5093    1.2362   20.8532 H   0  0  0  0  0  0
    6.8548   -1.9747   22.2801 H   0  0  0  0  0  0
    7.4072   -4.1349   23.2453 H   0  0  0  0  0  0
  1  2  1  0  0  0
  1 41  1  0  0  0
  1 42  1  0  0  0
  1 43  1  0  0  0
  2  3  1  0  0  0
  2  4  1  0  0  0
  2  5  1  0  0  0
  3 44  1  0  0  0
  3 45  1  0  0  0
  3 46  1  0  0  0
  4 47  1  0  0  0
  4 48  1  0  0  0
  4 49  1  0  0  0
  5  6  2  0  0  0
  5 40  1  0  0  0
  6  7  1  0  0  0
  6 50  1  0  0  0
  7  8  2  0  0  0
  7 51  1  0  0  0
  8  9  1  0  0  0
  8 39  1  0  0  0
  9 10  1  0  0  0
  9 20  1  0  0  0
 10 11  2  0  0  0
 10 12  1  0  0  0
 12 13  2  0  0  0
 12 19  1  0  0  0
 13 14  1  0  0  0
 13 52  1  0  0  0
 14 15  2  0  0  0
 14 53  1  0  0  0
 15 16  1  0  0  0
 15 54  1  0  0  0
 16 17  1  0  0  0
 16 19  2  0  0  0
 17 18  3  0  0  0
 19 55  1  0  0  0
 20 21  1  0  0  0
 20 33  1  0  0  0
 20 56  1  0  0  0
 21 22  2  0  0  0
 21 23  1  0  0  0
 23 24  1  0  0  0
 23 57  1  0  0  0
 24 25  1  0  0  0
 24 58  1  0  0  0
 24 59  1  0  0  0
 25 26  1  0  0  0
 25 60  1  0  0  0
 25 61  1  0  0  0
 26 27  2  0  0  0
 26 32  1  0  0  0
 27 28  1  0  0  0
 27 62  1  0  0  0
 28 29  2  0  0  0
 28 63  1  0  0  0
 29 30  1  0  0  0
 29 64  1  0  0  0
 30 31  1  0  0  0
 30 32  2  0  0  0
 32 65  1  0  0  0
 33 34  2  0  0  0
 33 38  1  0  0  0
 34 35  1  0  0  0
 34 66  1  0  0  0
 35 36  2  0  0  0
 35 67  1  0  0  0
 36 37  1  0  0  0
 36 68  1  0  0  0
 37 38  2  0  0  0
 38 69  1  0  0  0
 39 40  2  0  0  0
 39 70  1  0  0  0
 40 71  1  0  0  0
M  END
> <s_m_entry_id>
621

> <s_m_entry_name>
Compounds-withfrags-for-validation-docking.1899

> <s_m_Source_Path>
/home/rodolpho/data/melina/maestro/glide-dock_XP_5RGK_M-PRO_VALIDATION

> <s_m_Source_File>
glide-dock_XP_5RGK_M-PRO_VALIDATION_pv.maegz

> <i_m_Source_File_Index>
621

> <CID>
ALP-POS-02c6a514-33

> <Potency>
99.5

> <pIC50>
4.00218

> <Source>
Postera

> <smiles>
CC(C)(C)c1ccc(N(C(=O)c2cccc(C#N)c2)C(C(=O)NCCc2cccc(F)c2)c2cccnc2)cc1

> <Outcome>
Inactive

> <StandardizerResult>
Clear Stereo (ID: ClearStereo)
Wedge Clean (ID: WedgeClean)
Mesomerize (ID: Mesomerize)
Tautomerize (ID: Tautomerize)
Aromatize (ID: Aromatize)
Add Explicit Hydrogens (ID: AddExplicitH)
Neutralize (ID: Neutralize)
Clean 2D (ID: Clean2D)

> <chiral flag>
0

> <version>
0

> <i_lp_mmshare_version>
41011

> <i_f3d_flags>
0

> <s_epik_input>
TiNDYyhbY0hdMSlbY0hdW2NIXVtjSF1jMUMoPU8pTihjKFtjSF1bY0hdMilbY0hdW2NIXWMyQyhbQ0gzXSkoW0NIM10pW0NIM10pW0NASF0oYzNbY0hdW2NIXVtjSF1uW2NIXTMpQyg9TylbTkhdW0NIMl1bQ0gyXWM0W2NIXVtjSF1bY0hdYyhGKVtjSF00

> <s_epik_cmdline>
J2VwaWtfcHl0aG9uJywgJy1waHQnLCAnMC41JywgJy1waCcsICc3LjQnLCAnLXRuJywgJzgnLCAnLW1hJywgJzIwMCcsICctaW1hZScsICc8aW5maWxlLm1hZT4nLCAnLW9tYWUnLCAnPG91dGZpbGUubWFlPic=

> <r_lp_tautomer_probability>
1.0

> <r_epik_Ionization_Penalty>
6.0E-4

> <r_epik_Ionization_Penalty_Charging>
0.0

> <r_epik_Ionization_Penalty_Neutral>
6.0E-4

> <r_epik_State_Penalty>
0.0

> <r_epik_Charging_Adjusted_Penalty>
0.0

> <i_epik_Tot_Q>
0

> <i_epik_Tot_abs_Q>
0

> <s_lp_Force_Field>
OPLS3

> <r_lp_Energy>
82.997

> <b_lp_Chiralities_Consistent>
1

> <s_lp_Variant>
ligprep_COVID_compounds-withfrags-smallmolecules-forvalidation.maegz:18-1

> <i_glide_original_lignum>
129

> <s_i_glide_gridfile>
glide-grid_5RGK_M-PRO_COVID

> <i_i_glide_lignum>
129

> <r_i_docking_score>
-4.87873895946712

> <r_i_glide_ligand_efficiency>
-0.121968473986678

> <r_i_glide_ligand_efficiency_sa>
-0.417126313027254

> <r_i_glide_ligand_efficiency_ln>
-1.04049144517601

> <r_glide_XP_GScore>
-4.87873895946712

> <r_i_glide_gscore>
-4.87873895946712

> <r_i_glide_evdw>
-41.7417221069336

> <r_i_glide_ecoul>
-6.11975574493408

> <r_i_glide_energy>
-47.8614778518677

> <r_i_glide_einternal>
6.74930667877197

> <r_i_glide_emodel>
-61.483951252719

> <r_glide_XP_HBond>
-1.37930812648741

> <i_i_glide_confnum>
1

> <i_i_glide_posenum>
2

> <r_i_glide_eff_state_penalty>
0.0

> <i_glide_XP_PoseRank>
1

> <MW>
534.24

> <cLogP>
6.14

> <TPSA>
86.09

> <Rotatable Bonds>
8

> <Fraction sp3>
0.21

> <HBA>
4

> <HBD>
1

> <s_epik_Chemistry_Notes>


> <Structure ID>


> <Submission Fragments>


$$$$
ligprep_COVID_compounds-withfrags-smallmolecules-forvalidation.maegz:46
                    3D
 Structure written by MMmdl.
 58 61  0  0  1  0            999 V2000
    5.7390    3.0363   24.2995 O   0  0  0  0  0  0
    6.3048    2.4591   23.3707 C   0  0  0  0  0  0
    7.5756    2.7301   23.0172 N   0  0  0  0  0  0
    8.3141    3.9142   23.4583 C   0  0  0  0  0  0
    9.4634    3.6017   24.4326 C   0  0  0  0  0  0
   10.7385    3.0971   23.7677 C   0  0  0  0  0  0
   11.1721    1.7715   23.9651 C   0  0  0  0  0  0
   12.3645    1.3127   23.3725 C   0  0  0  0  0  0
   13.1467    2.1904   22.5988 C   0  0  0  0  0  0
   12.7293    3.5199   22.4026 C   0  0  0  0  0  0
   13.4905    4.3685   21.6710 F   0  0  0  0  0  0
   11.5238    3.9682   22.9786 C   0  0  0  0  0  0
    5.5325    1.4840   22.4507 C   0  0  2  0  0  0
    4.0422    1.6619   22.6164 C   0  0  0  0  0  0
    3.3055    1.2408   23.7503 C   0  0  0  0  0  0
    1.9142    1.4337   23.8135 C   0  0  0  0  0  0
    1.2768    2.0348   22.7174 C   0  0  0  0  0  0
    1.9397    2.4371   21.6197 N   0  0  0  0  0  0
    3.2793    2.2728   21.5922 C   0  0  0  0  0  0
    5.9196    0.0554   22.4471 N   0  0  0  0  0  0
    5.9541   -0.6281   23.7653 C   0  0  0  0  0  0
    7.1968   -1.4425   24.0940 C   0  0  0  0  0  0
    7.1309   -2.8534   24.1406 C   0  0  0  0  0  0
    8.2924   -3.6142   24.3674 C   0  0  0  0  0  0
    9.5217   -2.9641   24.5709 C   0  0  0  0  0  0
    9.5775   -1.5559   24.5710 C   0  0  0  0  0  0
    8.4201   -0.7930   24.3343 C   0  0  0  0  0  0
    6.1032   -0.6963   21.3201 C   0  0  0  0  0  0
    6.3749   -1.8941   21.4024 O   0  0  0  0  0  0
    5.9406   -0.2015   19.9183 C   0  0  0  0  0  0
    5.7029    0.9784   19.2422 C   0  0  0  0  0  0
    5.7035    0.6859   17.8546 C   0  0  0  0  0  0
    5.9370   -0.6487   17.7706 C   0  0  0  0  0  0
    6.0639   -1.1917   18.9909 O   0  0  0  0  0  0
    7.9802    2.2244   22.2374 H   0  0  0  0  0  0
    8.6872    4.4371   22.5768 H   0  0  0  0  0  0
    7.6340    4.6199   23.9378 H   0  0  0  0  0  0
    9.7136    4.5208   24.9637 H   0  0  0  0  0  0
    9.1289    2.9008   25.1993 H   0  0  0  0  0  0
   10.5915    1.1113   24.5873 H   0  0  0  0  0  0
   12.6877    0.2929   23.5246 H   0  0  0  0  0  0
   14.0756    1.8463   22.1710 H   0  0  0  0  0  0
   11.2074    4.9894   22.8206 H   0  0  0  0  0  0
    5.8326    1.9298   21.5237 H   0  0  0  0  0  0
    3.7939    0.7633   24.5814 H   0  0  0  0  0  0
    1.3485    1.1196   24.6775 H   0  0  0  0  0  0
    0.2078    2.1903   22.7192 H   0  0  0  0  0  0
    3.7563    2.6358   20.6959 H   0  0  0  0  0  0
    5.8738    0.0870   24.5699 H   0  0  0  0  0  0
    5.0776   -1.2669   23.8584 H   0  0  0  0  0  0
    6.1935   -3.3583   23.9609 H   0  0  0  0  0  0
    8.2406   -4.6936   24.3770 H   0  0  0  0  0  0
   10.4152   -3.5486   24.7379 H   0  0  0  0  0  0
   10.5210   -1.0631   24.7414 H   0  0  0  0  0  0
    8.4692    0.2851   24.3136 H   0  0  0  0  0  0
    5.5475    1.9763   19.6088 H   0  0  0  0  0  0
    5.5377    1.3650   17.0310 H   0  0  0  0  0  0
    6.0014   -1.3638   16.9701 H   0  0  0  0  0  0
  1  2  2  0  0  0
  2  3  1  0  0  0
  2 13  1  0  0  0
  3  4  1  0  0  0
  3 35  1  0  0  0
  4  5  1  0  0  0
  4 36  1  0  0  0
  4 37  1  0  0  0
  5  6  1  0  0  0
  5 38  1  0  0  0
  5 39  1  0  0  0
  6  7  2  0  0  0
  6 12  1  0  0  0
  7  8  1  0  0  0
  7 40  1  0  0  0
  8  9  2  0  0  0
  8 41  1  0  0  0
  9 10  1  0  0  0
  9 42  1  0  0  0
 10 11  1  0  0  0
 10 12  2  0  0  0
 12 43  1  0  0  0
 13 14  1  0  0  0
 13 20  1  0  0  0
 13 44  1  0  0  0
 14 15  2  0  0  0
 14 19  1  0  0  0
 15 16  1  0  0  0
 15 45  1  0  0  0
 16 17  2  0  0  0
 16 46  1  0  0  0
 17 18  1  0  0  0
 17 47  1  0  0  0
 18 19  2  0  0  0
 19 48  1  0  0  0
 20 21  1  0  0  0
 20 28  1  0  0  0
 21 22  1  0  0  0
 21 49  1  0  0  0
 21 50  1  0  0  0
 22 23  2  0  0  0
 22 27  1  0  0  0
 23 24  1  0  0  0
 23 51  1  0  0  0
 24 25  2  0  0  0
 24 52  1  0  0  0
 25 26  1  0  0  0
 25 53  1  0  0  0
 26 27  2  0  0  0
 26 54  1  0  0  0
 27 55  1  0  0  0
 28 29  2  0  0  0
 28 30  1  0  0  0
 30 31  2  0  0  0
 30 34  1  0  0  0
 31 32  1  0  0  0
 31 56  1  0  0  0
 32 33  2  0  0  0
 32 57  1  0  0  0
 33 34  1  0  0  0
 33 58  1  0  0  0
M  END
> <s_m_entry_id>
627

> <s_m_entry_name>
Compounds-withfrags-for-validation-docking.1871

> <s_m_Source_Path>
/home/rodolpho/data/melina/maestro/glide-dock_XP_5RGK_M-PRO_VALIDATION

> <s_m_Source_File>
glide-dock_XP_5RGK_M-PRO_VALIDATION_pv.maegz

> <i_m_Source_File_Index>
627

> <CID>
ALP-POS-b0bc6a46-2

> <Potency>
99.5

> <pIC50>
4.00218

> <Source>
Postera

> <smiles>
O=C(NCCc1cccc(F)c1)C(c1cccnc1)N(Cc1ccccc1)C(=O)c1ccco1

> <Outcome>
Inactive

> <StandardizerResult>
Clear Stereo (ID: ClearStereo)
Wedge Clean (ID: WedgeClean)
Mesomerize (ID: Mesomerize)
Tautomerize (ID: Tautomerize)
Aromatize (ID: Aromatize)
Add Explicit Hydrogens (ID: AddExplicitH)
Neutralize (ID: Neutralize)
Clean 2D (ID: Clean2D)

> <chiral flag>
0

> <version>
0

> <i_lp_mmshare_version>
41011

> <i_f3d_flags>
0

> <s_epik_input>
W2NIXTFbY0hdW2NIXVtjSF1bY0hdYzFbQ0gyXU4oQyg9TyljMltjSF1bY0hdW2NIXW8yKVtDQEBIXShjM1tjSF1bY0hdW2NIXW5bY0hdMylDKD1PKVtOSF1bQ0gyXVtDSDJdYzRbY0hdW2NIXVtjSF1jKEYpW2NIXTQ=

> <s_epik_cmdline>
J2VwaWtfcHl0aG9uJywgJy1waHQnLCAnMC41JywgJy1waCcsICc3LjQnLCAnLXRuJywgJzgnLCAnLW1hJywgJzIwMCcsICctaW1hZScsICc8aW5maWxlLm1hZT4nLCAnLW9tYWUnLCAnPG91dGZpbGUubWFlPic=

> <r_lp_tautomer_probability>
1.0

> <r_epik_Ionization_Penalty>
7.0E-4

> <r_epik_Ionization_Penalty_Charging>
0.0

> <r_epik_Ionization_Penalty_Neutral>
7.0E-4

> <r_epik_State_Penalty>
0.0

> <r_epik_Charging_Adjusted_Penalty>
0.0

> <i_epik_Tot_Q>
0

> <i_epik_Tot_abs_Q>
0

> <s_lp_Force_Field>
OPLS3

> <r_lp_Energy>
52.9448

> <b_lp_Chiralities_Consistent>
1

> <s_lp_Variant>
ligprep_COVID_compounds-withfrags-smallmolecules-forvalidation.maegz:46-2

> <i_glide_original_lignum>
204

> <s_i_glide_gridfile>
glide-grid_5RGK_M-PRO_COVID

> <i_i_glide_lignum>
204

> <r_i_docking_score>
-4.87512788041688

> <r_i_glide_ligand_efficiency>
-0.143386114129908

> <r_i_glide_ligand_efficiency_sa>
-0.464515346928554

> <r_i_glide_ligand_efficiency_ln>
-1.07705249148935

> <r_glide_XP_GScore>
-4.87512788041688

> <r_i_glide_gscore>
-4.87512788041688

> <r_i_glide_evdw>
-42.8354339599609

> <r_i_glide_ecoul>
-6.73294973373413

> <r_i_glide_energy>
-49.5683836936951

> <r_i_glide_einternal>
7.46467018127441

> <r_i_glide_emodel>
-69.7126241878742

> <r_glide_XP_HBond>
-0.649079335725919

> <i_i_glide_confnum>
1

> <i_i_glide_posenum>
13

> <r_i_glide_eff_state_penalty>
0.0

> <i_glide_XP_PoseRank>
1

> <MW>
457.18

> <cLogP>
4.56

> <TPSA>
75.44

> <Rotatable Bonds>
9

> <Fraction sp3>
0.15

> <HBA>
4

> <HBD>
1

> <s_epik_Chemistry_Notes>


> <Structure ID>


> <Submission Fragments>


$$$$
ligprep_COVID_compounds-withfrags-smallmolecules-forvalidation.maegz:59
                    3D
 Structure written by MMmdl.
 40 43  0  0  1  0            999 V2000
    6.3842    1.5034   16.9173 C   0  0  0  0  0  0
    5.9454    0.2381   17.3709 O   0  0  0  0  0  0
    5.7055    0.1485   18.7146 C   0  0  0  0  0  0
    6.0343   -1.0749   19.3386 C   0  0  0  0  0  0
    5.9754   -1.2238   20.7395 C   0  0  0  0  0  0
    5.4912   -0.1418   21.5008 C   0  0  0  0  0  0
    5.3062    0.0266   22.8783 C   0  0  0  0  0  0
    5.5749   -0.9636   23.8253 N   0  0  0  0  0  0
    6.7393   -1.1172   24.4576 C   0  0  0  0  0  0
    7.7534   -0.4723   24.1865 O   0  0  0  0  0  0
    6.7400   -2.1845   25.5582 C   0  0  2  0  0  0
    7.3126   -1.6283   26.8733 C   0  0  0  0  0  0
    8.8321   -1.7627   26.8814 C   0  0  0  0  0  0
    9.1749   -3.1419   26.8198 O   0  0  0  0  0  0
    8.6745   -3.8321   25.7489 C   0  0  0  0  0  0
    9.3596   -4.9853   25.3260 C   0  0  0  0  0  0
    8.8967   -5.7054   24.2128 C   0  0  0  0  0  0
    7.7348   -5.2919   23.5395 C   0  0  0  0  0  0
    7.1745   -6.1637   22.1707 Cl  0  0  0  0  0  0
    7.0263   -4.1623   23.9791 C   0  0  0  0  0  0
    7.4970   -3.4176   25.0801 C   0  0  0  0  0  0
    4.7364    1.1923   23.1487 N   0  0  0  0  0  0
    4.5930    1.8371   21.8874 O   0  0  0  0  0  0
    5.0726    1.0257   20.8672 C   0  0  0  0  0  0
    5.1753    1.2141   19.4839 C   0  0  0  0  0  0
    6.7749    1.4363   15.9025 H   0  0  0  0  0  0
    7.2246    1.8329   17.5240 H   0  0  0  0  0  0
    5.5876    2.2479   16.9279 H   0  0  0  0  0  0
    6.3754   -1.8967   18.7292 H   0  0  0  0  0  0
    6.2756   -2.1489   21.2106 H   0  0  0  0  0  0
    4.8267   -1.6177   24.0121 H   0  0  0  0  0  0
    5.7089   -2.4862   25.7492 H   0  0  0  0  0  0
    7.0236   -0.5895   27.0343 H   0  0  0  0  0  0
    6.9048   -2.1910   27.7127 H   0  0  0  0  0  0
    9.2870   -1.2381   26.0413 H   0  0  0  0  0  0
    9.2581   -1.3042   27.7702 H   0  0  0  0  0  0
   10.2543   -5.3062   25.8414 H   0  0  0  0  0  0
    9.4518   -6.5639   23.8682 H   0  0  0  0  0  0
    6.1303   -3.8617   23.4577 H   0  0  0  0  0  0
    4.8668    2.1530   19.0478 H   0  0  0  0  0  0
  1  2  1  0  0  0
  1 26  1  0  0  0
  1 27  1  0  0  0
  1 28  1  0  0  0
  2  3  1  0  0  0
  3  4  2  0  0  0
  3 25  1  0  0  0
  4  5  1  0  0  0
  4 29  1  0  0  0
  5  6  2  0  0  0
  5 30  1  0  0  0
  6  7  1  0  0  0
  6 24  1  0  0  0
  7  8  1  0  0  0
  7 22  2  0  0  0
  8  9  1  0  0  0
  8 31  1  0  0  0
  9 10  2  0  0  0
  9 11  1  0  0  0
 11 12  1  0  0  0
 11 21  1  0  0  0
 11 32  1  0  0  0
 12 13  1  0  0  0
 12 33  1  0  0  0
 12 34  1  0  0  0
 13 14  1  0  0  0
 13 35  1  0  0  0
 13 36  1  0  0  0
 14 15  1  0  0  0
 15 16  2  0  0  0
 15 21  1  0  0  0
 16 17  1  0  0  0
 16 37  1  0  0  0
 17 18  2  0  0  0
 17 38  1  0  0  0
 18 19  1  0  0  0
 18 20  1  0  0  0
 20 21  2  0  0  0
 20 39  1  0  0  0
 22 23  1  0  0  0
 23 24  1  0  0  0
 24 25  2  0  0  0
 25 40  1  0  0  0
M  END
> <s_m_entry_id>
635

> <s_m_entry_name>
Compounds-withfrags-for-validation-docking.1858

> <s_m_Source_Path>
/home/rodolpho/data/melina/maestro/glide-dock_XP_5RGK_M-PRO_VALIDATION

> <s_m_Source_File>
glide-dock_XP_5RGK_M-PRO_VALIDATION_pv.maegz

> <i_m_Source_File_Index>
635

> <CID>
JAG-UCB-52b62a6f-10

> <Potency>
61.5022

> <pIC50>
4.21111

> <Source>
Postera

> <smiles>
COc1ccc2c(NC(=O)C3CCOc4ccc(Cl)cc43)noc2c1

> <Outcome>
Inactive

> <StandardizerResult>
Clear Stereo (ID: ClearStereo)
Wedge Clean (ID: WedgeClean)
Mesomerize (ID: Mesomerize)
Tautomerize (ID: Tautomerize)
Aromatize (ID: Aromatize)
Add Explicit Hydrogens (ID: AddExplicitH)
Neutralize (ID: Neutralize)
Clean 2D (ID: Clean2D)

> <chiral flag>
0

> <version>
0

> <i_lp_mmshare_version>
41011

> <i_f3d_flags>
0

> <s_epik_input>
W0NIM11PYyhbY0hdW2NIXTEpW2NIXWMoYzEyKW9uYzJbTkhdQyg9TylbQ0BIXShbQ0gyXVtDSDJdTzMpYyhjMzQpW2NIXWMoQ2wpW2NIXVtjSF00

> <s_epik_cmdline>
J2VwaWtfcHl0aG9uJywgJy1waHQnLCAnMC41JywgJy1waCcsICc3LjQnLCAnLXRuJywgJzgnLCAnLW1hJywgJzIwMCcsICctaW1hZScsICc8aW5maWxlLm1hZT4nLCAnLW9tYWUnLCAnPG91dGZpbGUubWFlPic=

> <r_lp_tautomer_probability>
1.0

> <r_epik_Ionization_Penalty>
4.0E-4

> <r_epik_Ionization_Penalty_Charging>
0.0

> <r_epik_Ionization_Penalty_Neutral>
4.0E-4

> <r_epik_State_Penalty>
0.0

> <r_epik_Charging_Adjusted_Penalty>
0.0

> <i_epik_Tot_Q>
0

> <i_epik_Tot_abs_Q>
0

> <s_lp_Force_Field>
OPLS3

> <r_lp_Energy>
34.9107

> <b_lp_Chiralities_Consistent>
1

> <s_lp_Variant>
ligprep_COVID_compounds-withfrags-smallmolecules-forvalidation.maegz:59-1

> <i_glide_original_lignum>
229

> <s_i_glide_gridfile>
glide-grid_5RGK_M-PRO_COVID

> <i_i_glide_lignum>
229

> <r_i_docking_score>
-4.8673426723128

> <r_i_glide_ligand_efficiency>
-0.194693706892512

> <r_i_glide_ligand_efficiency_sa>
-0.569287851861299

> <r_i_glide_ligand_efficiency_ln>
-1.15370607582764

> <r_glide_XP_GScore>
-4.8673426723128

> <r_i_glide_gscore>
-4.8673426723128

> <r_i_glide_evdw>
-30.2337207794189

> <r_i_glide_ecoul>
-7.4590163230896

> <r_i_glide_energy>
-37.6927371025085

> <r_i_glide_einternal>
7.25555229187012

> <r_i_glide_emodel>
-39.9476775330174

> <r_glide_XP_HBond>
-0.252251428261492

> <i_i_glide_confnum>
1

> <i_i_glide_posenum>
1

> <r_i_glide_eff_state_penalty>
0.0

> <i_glide_XP_PoseRank>
1

> <MW>
358.07

> <cLogP>
3.99

> <TPSA>
73.59

> <Rotatable Bonds>
3

> <Fraction sp3>
0.22

> <HBA>
5

> <HBD>
1

> <s_epik_Chemistry_Notes>


> <Structure ID>


> <Submission Fragments>


$$$$
ligprep_COVID_compounds-withfrags-smallmolecules-forvalidation.maegz:20
                    3D
 Structure written by MMmdl.
 69 72  0  0  1  0            999 V2000
    0.0410    0.2069   27.0376 C   0  0  0  0  0  0
    1.2582    1.1403   27.2158 C   0  0  0  0  0  0
    0.7230    2.5871   27.3166 C   0  0  0  0  0  0
    1.9693    0.8075   28.5429 C   0  0  0  0  0  0
    2.2443    0.9461   26.0486 C   0  0  0  0  0  0
    2.6638    2.0160   25.2217 C   0  0  0  0  0  0
    3.5755    1.8009   24.1707 C   0  0  0  0  0  0
    4.0926    0.5080   23.9018 C   0  0  0  0  0  0
    4.9738    0.3149   22.7755 N   0  0  0  0  0  0
    4.4067    0.5953   21.5538 C   0  0  0  0  0  0
    3.2555    1.0363   21.4437 O   0  0  0  0  0  0
    5.1565    0.4749   20.2573 C   0  0  0  0  0  0
    4.9065    1.4362   19.2625 C   0  0  0  0  0  0
    5.5787    1.3676   18.0393 C   0  0  0  0  0  0
    6.4764    0.4068   17.7706 N   0  0  0  0  0  0
    6.6394   -0.5782   18.6698 C   0  0  0  0  0  0
    5.9753   -0.6160   19.9070 C   0  0  0  0  0  0
    6.4240   -0.0531   23.0017 C   0  0  1  0  0  0
    7.2677    1.0158   23.7539 C   0  0  0  0  0  0
    7.9753    0.7141   24.7143 O   0  0  0  0  0  0
    7.2218    2.2659   23.2562 N   0  0  0  0  0  0
    7.8572    3.5002   23.7383 C   0  0  0  0  0  0
    9.1755    3.4088   24.5548 C   0  0  0  0  0  0
   10.4257    2.9375   23.8160 C   0  0  0  0  0  0
   10.9356    1.6369   24.0272 C   0  0  0  0  0  0
   12.1385    1.2342   23.4160 C   0  0  0  0  0  0
   12.8601    2.1398   22.6179 C   0  0  0  0  0  0
   12.3741    3.4437   22.4190 C   0  0  0  0  0  0
   13.0828    4.3197   21.6669 F   0  0  0  0  0  0
   11.1566    3.8380   23.0095 C   0  0  0  0  0  0
    6.6709   -1.4211   23.6450 C   0  0  0  0  0  0
    7.1748   -2.5079   22.8867 C   0  0  0  0  0  0
    7.4398   -3.7572   23.4765 C   0  0  0  0  0  0
    7.1861   -3.9114   24.8466 C   0  0  0  0  0  0
    6.7188   -2.9101   25.6109 N   0  0  0  0  0  0
    6.4878   -1.7178   25.0232 C   0  0  0  0  0  0
    3.6641   -0.5624   24.7245 C   0  0  0  0  0  0
    2.7658   -0.3415   25.7840 C   0  0  0  0  0  0
   -0.6885    0.3480   27.8367 H   0  0  0  0  0  0
    0.3214   -0.8462   27.0526 H   0  0  0  0  0  0
   -0.4678    0.3968   26.0923 H   0  0  0  0  0  0
    0.1976    2.8848   26.4079 H   0  0  0  0  0  0
    1.5260    3.3048   27.4952 H   0  0  0  0  0  0
    0.0163    2.6913   28.1416 H   0  0  0  0  0  0
    1.3031    0.9381   29.3956 H   0  0  0  0  0  0
    2.8315    1.4564   28.7020 H   0  0  0  0  0  0
    2.3271   -0.2223   28.5692 H   0  0  0  0  0  0
    2.3015    3.0219   25.3694 H   0  0  0  0  0  0
    3.8682    2.6403   23.5555 H   0  0  0  0  0  0
    4.2097    2.2402   19.4362 H   0  0  0  0  0  0
    5.4204    2.1157   17.2759 H   0  0  0  0  0  0
    7.3147   -1.3636   18.3772 H   0  0  0  0  0  0
    6.0980   -1.4623   20.5578 H   0  0  0  0  0  0
    6.9627   -0.0486   22.0622 H   0  0  0  0  0  0
    6.6420    2.4109   22.4397 H   0  0  0  0  0  0
    8.0143    4.1442   22.8727 H   0  0  0  0  0  0
    7.1097    4.0093   24.3491 H   0  0  0  0  0  0
    9.3947    4.4098   24.9265 H   0  0  0  0  0  0
    9.0330    2.8192   25.4586 H   0  0  0  0  0  0
   10.4167    0.9435   24.6711 H   0  0  0  0  0  0
   12.5211    0.2371   23.5742 H   0  0  0  0  0  0
   13.7961    1.8394   22.1711 H   0  0  0  0  0  0
   10.7930    4.8442   22.8547 H   0  0  0  0  0  0
    7.3917   -2.4015   21.8382 H   0  0  0  0  0  0
    7.8282   -4.5777   22.8921 H   0  0  0  0  0  0
    7.3711   -4.8548   25.3389 H   0  0  0  0  0  0
    6.1304   -0.9638   25.7048 H   0  0  0  0  0  0
    4.0117   -1.5680   24.5707 H   0  0  0  0  0  0
    2.4771   -1.1829   26.3949 H   0  0  0  0  0  0
  1  2  1  0  0  0
  1 39  1  0  0  0
  1 40  1  0  0  0
  1 41  1  0  0  0
  2  3  1  0  0  0
  2  4  1  0  0  0
  2  5  1  0  0  0
  3 42  1  0  0  0
  3 43  1  0  0  0
  3 44  1  0  0  0
  4 45  1  0  0  0
  4 46  1  0  0  0
  4 47  1  0  0  0
  5  6  2  0  0  0
  5 38  1  0  0  0
  6  7  1  0  0  0
  6 48  1  0  0  0
  7  8  2  0  0  0
  7 49  1  0  0  0
  8  9  1  0  0  0
  8 37  1  0  0  0
  9 10  1  0  0  0
  9 18  1  0  0  0
 10 11  2  0  0  0
 10 12  1  0  0  0
 12 13  2  0  0  0
 12 17  1  0  0  0
 13 14  1  0  0  0
 13 50  1  0  0  0
 14 15  2  0  0  0
 14 51  1  0  0  0
 15 16  1  0  0  0
 16 17  2  0  0  0
 16 52  1  0  0  0
 17 53  1  0  0  0
 18 19  1  0  0  0
 18 31  1  0  0  0
 18 54  1  0  0  0
 19 20  2  0  0  0
 19 21  1  0  0  0
 21 22  1  0  0  0
 21 55  1  0  0  0
 22 23  1  0  0  0
 22 56  1  0  0  0
 22 57  1  0  0  0
 23 24  1  0  0  0
 23 58  1  0  0  0
 23 59  1  0  0  0
 24 25  2  0  0  0
 24 30  1  0  0  0
 25 26  1  0  0  0
 25 60  1  0  0  0
 26 27  2  0  0  0
 26 61  1  0  0  0
 27 28  1  0  0  0
 27 62  1  0  0  0
 28 29  1  0  0  0
 28 30  2  0  0  0
 30 63  1  0  0  0
 31 32  2  0  0  0
 31 36  1  0  0  0
 32 33  1  0  0  0
 32 64  1  0  0  0
 33 34  2  0  0  0
 33 65  1  0  0  0
 34 35  1  0  0  0
 34 66  1  0  0  0
 35 36  2  0  0  0
 36 67  1  0  0  0
 37 38  2  0  0  0
 37 68  1  0  0  0
 38 69  1  0  0  0
M  END
> <s_m_entry_id>
645

> <s_m_entry_name>
Compounds-withfrags-for-validation-docking.1897

> <s_m_Source_Path>
/home/rodolpho/data/melina/maestro/glide-dock_XP_5RGK_M-PRO_VALIDATION

> <s_m_Source_File>
glide-dock_XP_5RGK_M-PRO_VALIDATION_pv.maegz

> <i_m_Source_File_Index>
645

> <CID>
ALP-POS-02c6a514-26

> <Potency>
99.5

> <pIC50>
4.00218

> <Source>
Postera

> <smiles>
CC(C)(C)c1ccc(N(C(=O)c2ccncc2)C(C(=O)NCCc2cccc(F)c2)c2cccnc2)cc1

> <Outcome>
Inactive

> <StandardizerResult>
Clear Stereo (ID: ClearStereo)
Wedge Clean (ID: WedgeClean)
Mesomerize (ID: Mesomerize)
Tautomerize (ID: Tautomerize)
Aromatize (ID: Aromatize)
Add Explicit Hydrogens (ID: AddExplicitH)
Neutralize (ID: Neutralize)
Clean 2D (ID: Clean2D)

> <chiral flag>
0

> <version>
0

> <i_lp_mmshare_version>
41011

> <i_f3d_flags>
0

> <s_epik_input>
W2NIXTFbY0hdbltjSF1bY0hdYzFDKD1PKU4oYyhbY0hdW2NIXTIpW2NIXVtjSF1jMkMoW0NIM10pKFtDSDNdKVtDSDNdKVtDQEhdKGMzW2NIXVtjSF1bY0hdbltjSF0zKUMoPU8pW05IXVtDSDJdW0NIMl1jNFtjSF1bY0hdW2NIXWMoRilbY0hdNA==

> <s_epik_cmdline>
J2VwaWtfcHl0aG9uJywgJy1waHQnLCAnMC41JywgJy1waCcsICc3LjQnLCAnLXRuJywgJzgnLCAnLW1hJywgJzIwMCcsICctaW1hZScsICc8aW5maWxlLm1hZT4nLCAnLW9tYWUnLCAnPG91dGZpbGUubWFlPic=

> <r_lp_tautomer_probability>
1.0

> <r_epik_Ionization_Penalty>
6.0E-4

> <r_epik_Ionization_Penalty_Charging>
0.0

> <r_epik_Ionization_Penalty_Neutral>
6.0E-4

> <r_epik_State_Penalty>
0.0

> <r_epik_Charging_Adjusted_Penalty>
0.0

> <i_epik_Tot_Q>
0

> <i_epik_Tot_abs_Q>
0

> <s_lp_Force_Field>
OPLS3

> <r_lp_Energy>
83.6297

> <b_lp_Chiralities_Consistent>
1

> <s_lp_Variant>
ligprep_COVID_compounds-withfrags-smallmolecules-forvalidation.maegz:20-1

> <i_glide_original_lignum>
133

> <s_i_glide_gridfile>
glide-grid_5RGK_M-PRO_COVID

> <i_i_glide_lignum>
133

> <r_i_docking_score>
-4.8583849279471

> <r_i_glide_ligand_efficiency>
-0.127852234945976

> <r_i_glide_ligand_efficiency_sa>
-0.429836069071466

> <r_i_glide_ligand_efficiency_ln>
-1.04761070967008

> <r_glide_XP_GScore>
-4.8583849279471

> <r_i_glide_gscore>
-4.8583849279471

> <r_i_glide_evdw>
-36.0632591247559

> <r_i_glide_ecoul>
-12.5119752883911

> <r_i_glide_energy>
-48.575234413147

> <r_i_glide_einternal>
4.20905017852783

> <r_i_glide_emodel>
-69.4383297913201

> <r_glide_XP_HBond>
-0.136523597401161

> <i_i_glide_confnum>
1

> <i_i_glide_posenum>
2

> <r_i_glide_eff_state_penalty>
0.0

> <i_glide_XP_PoseRank>
1

> <MW>
510.24

> <cLogP>
5.66

> <TPSA>
75.19

> <Rotatable Bonds>
8

> <Fraction sp3>
0.23

> <HBA>
4

> <HBD>
1

> <s_epik_Chemistry_Notes>


> <Structure ID>


> <Submission Fragments>


$$$$
ligprep_COVID_compounds-withfrags-smallmolecules-forvalidation.maegz:4
                    3D
 Structure written by MMmdl.
 93 97  0  0  1  0            999 V2000
    4.3128    4.8995   25.6143 C   0  0  0  0  0  0
    3.5636    5.1087   24.2813 C   0  0  0  0  0  0
    2.0548    5.3120   24.5242 C   0  0  0  0  0  0
    4.1287    6.3580   23.5828 C   0  0  0  0  0  0
    3.7837    3.9832   23.3707 N   0  0  0  0  0  0
    3.4797    2.6839   23.5501 C   0  0  0  0  0  0
    2.9899    2.2426   24.5882 O   0  0  0  0  0  0
    3.7467    1.7071   22.3915 C   0  0  2  0  0  0
    5.1526    1.1211   22.6020 C   0  0  0  0  0  0
    5.4848    0.1905   21.5287 N   0  0  0  0  0  0
    6.7752   -0.4377   21.7917 C   0  0  0  0  0  0
    6.7769   -1.5238   22.8577 C   0  0  0  0  0  0
    6.8397   -2.8784   22.4730 C   0  0  0  0  0  0
    6.9996   -3.8669   23.4640 C   0  0  0  0  0  0
    7.0820   -3.4608   24.8074 C   0  0  0  0  0  0
    7.0432   -2.1662   25.1900 N   0  0  0  0  0  0
    6.9005   -1.2263   24.2315 C   0  0  0  0  0  0
    5.5899    1.0125   20.3258 C   0  0  0  0  0  0
    4.1845    1.5072   19.9553 C   0  0  0  0  0  0
    3.5600    2.3139   21.0387 N   0  3  1  0  0  0
    2.1198    2.5878   20.7558 C   0  0  0  0  0  0
    1.8923    3.8007   19.8438 C   0  0  1  0  0  0
    0.3952    4.0184   19.5493 C   0  0  0  0  0  0
    0.0568    5.3247   18.7859 C   0  0  2  0  0  0
   -1.4589    5.4766   18.5075 C   0  0  0  0  0  0
   -2.3381    5.2898   19.7339 C   0  0  0  0  0  0
   -2.2093    6.1536   20.8444 C   0  0  0  0  0  0
   -3.0098    5.9582   21.9884 C   0  0  0  0  0  0
   -3.9472    4.9081   22.0251 C   0  0  0  0  0  0
   -4.0837    4.0509   20.9161 C   0  0  0  0  0  0
   -3.2790    4.2403   19.7756 C   0  0  0  0  0  0
    0.8440    5.4248   17.4722 C   0  0  0  0  0  0
    0.5714    4.6644   16.5453 O   0  0  0  0  0  0
    1.8030    6.3674   17.4107 N   0  0  0  0  0  0
    2.5763    6.7610   16.2260 C   0  0  2  0  0  0
    1.7022    7.0731   15.0347 C   0  0  0  0  0  0
    0.7858    8.1322   14.9014 C   0  0  0  0  0  0
    0.0588    8.2366   13.6969 C   0  0  0  0  0  0
    0.2459    7.2941   12.6577 C   0  0  0  0  0  0
    1.1628    6.2305   12.8117 C   0  0  0  0  0  0
    1.8786    6.1441   14.0175 C   0  0  0  0  0  0
    2.8810    5.0941   14.4079 C   0  0  0  0  0  0
    3.5555    5.6730   15.6805 C   0  0  2  0  0  0
    3.9272    4.6371   16.5707 O   0  0  0  0  0  0
    2.3750    4.9395   20.5186 O   0  0  0  0  0  0
    4.2344    5.7821   26.2473 H   0  0  0  0  0  0
    5.3732    4.7074   25.4493 H   0  0  0  0  0  0
    3.9092    4.0631   26.1850 H   0  0  0  0  0  0
    1.6088    4.4728   25.0577 H   0  0  0  0  0  0
    1.5148    5.4279   23.5843 H   0  0  0  0  0  0
    1.8713    6.2068   25.1181 H   0  0  0  0  0  0
    4.0048    7.2468   24.2020 H   0  0  0  0  0  0
    3.6244    6.5469   22.6339 H   0  0  0  0  0  0
    5.1948    6.2494   23.3717 H   0  0  0  0  0  0
    4.2969    4.2362   22.5253 H   0  0  0  0  0  0
    3.0378    0.8890   22.4825 H   0  0  0  0  0  0
    5.9046    1.9114   22.6790 H   0  0  0  0  0  0
    5.1520    0.5918   23.5543 H   0  0  0  0  0  0
    7.1360   -0.8931   20.8687 H   0  0  0  0  0  0
    7.5159    0.3207   22.0576 H   0  0  0  0  0  0
    6.7946   -3.1510   21.4301 H   0  0  0  0  0  0
    7.0526   -4.9127   23.2012 H   0  0  0  0  0  0
    7.1995   -4.1909   25.5960 H   0  0  0  0  0  0
    6.9359   -0.2008   24.5683 H   0  0  0  0  0  0
    6.2840    1.8385   20.4760 H   0  0  0  0  0  0
    5.9807    0.4191   19.4986 H   0  0  0  0  0  0
    4.2294    2.0970   19.0403 H   0  0  0  0  0  0
    3.5741    0.6345   19.7330 H   0  0  0  0  0  0
    1.6524    1.7044   20.3203 H   0  0  0  0  0  0
    1.5699    2.7685   21.6789 H   0  0  0  0  0  0
    2.4330    3.6729   18.9056 H   0  0  0  0  0  0
    0.0160    3.1648   18.9897 H   0  0  0  0  0  0
   -0.1413    4.0129   20.4989 H   0  0  0  0  0  0
    0.3480    6.1633   19.4198 H   0  0  0  0  0  0
   -1.6636    6.4631   18.0869 H   0  0  0  0  0  0
   -1.7710    4.7609   17.7458 H   0  0  0  0  0  0
   -1.4931    6.9629   20.8261 H   0  0  0  0  0  0
   -2.8983    6.6116   22.8428 H   0  0  0  0  0  0
   -4.5599    4.7561   22.9018 H   0  0  0  0  0  0
   -4.8035    3.2439   20.9407 H   0  0  0  0  0  0
   -3.3878    3.5731   18.9300 H   0  0  0  0  0  0
    1.9656    6.9084   18.2486 H   0  0  0  0  0  0
    3.1385    7.6584   16.4892 H   0  0  0  0  0  0
    0.6447    8.8481   15.6993 H   0  0  0  0  0  0
   -0.6489    9.0424   13.5673 H   0  0  0  0  0  0
   -0.3191    7.3851   11.7420 H   0  0  0  0  0  0
    1.3078    5.5040   12.0234 H   0  0  0  0  0  0
    2.3389    4.1778   14.6367 H   0  0  0  0  0  0
    3.5750    4.8717   13.6069 H   0  0  0  0  0  0
    4.4628    6.1915   15.3634 H   0  0  0  0  0  0
    4.1487    4.9802   17.4324 H   0  0  0  0  0  0
    3.2919    5.0373   20.2553 H   0  0  0  0  0  0
    4.0626    3.1985   21.0444 H   0  0  0  0  0  0
  1  2  1  0  0  0
  1 46  1  0  0  0
  1 47  1  0  0  0
  1 48  1  0  0  0
  2  3  1  0  0  0
  2  4  1  0  0  0
  2  5  1  0  0  0
  3 49  1  0  0  0
  3 50  1  0  0  0
  3 51  1  0  0  0
  4 52  1  0  0  0
  4 53  1  0  0  0
  4 54  1  0  0  0
  5  6  1  0  0  0
  5 55  1  0  0  0
  6  7  2  0  0  0
  6  8  1  0  0  0
  8  9  1  0  0  0
  8 20  1  0  0  0
  8 56  1  0  0  0
  9 10  1  0  0  0
  9 57  1  0  0  0
  9 58  1  0  0  0
 10 11  1  0  0  0
 10 18  1  0  0  0
 11 12  1  0  0  0
 11 59  1  0  0  0
 11 60  1  0  0  0
 12 13  2  0  0  0
 12 17  1  0  0  0
 13 14  1  0  0  0
 13 61  1  0  0  0
 14 15  2  0  0  0
 14 62  1  0  0  0
 15 16  1  0  0  0
 15 63  1  0  0  0
 16 17  2  0  0  0
 17 64  1  0  0  0
 18 19  1  0  0  0
 18 65  1  0  0  0
 18 66  1  0  0  0
 19 20  1  0  0  0
 19 67  1  0  0  0
 19 68  1  0  0  0
 20 21  1  0  0  0
 20 93  1  0  0  0
 21 22  1  0  0  0
 21 69  1  0  0  0
 21 70  1  0  0  0
 22 23  1  0  0  0
 22 45  1  0  0  0
 22 71  1  0  0  0
 23 24  1  0  0  0
 23 72  1  0  0  0
 23 73  1  0  0  0
 24 25  1  0  0  0
 24 32  1  0  0  0
 24 74  1  0  0  0
 25 26  1  0  0  0
 25 75  1  0  0  0
 25 76  1  0  0  0
 26 27  2  0  0  0
 26 31  1  0  0  0
 27 28  1  0  0  0
 27 77  1  0  0  0
 28 29  2  0  0  0
 28 78  1  0  0  0
 29 30  1  0  0  0
 29 79  1  0  0  0
 30 31  2  0  0  0
 30 80  1  0  0  0
 31 81  1  0  0  0
 32 33  2  0  0  0
 32 34  1  0  0  0
 34 35  1  0  0  0
 34 82  1  0  0  0
 35 36  1  0  0  0
 35 43  1  0  0  0
 35 83  1  0  0  0
 36 37  2  0  0  0
 36 41  1  0  0  0
 37 38  1  0  0  0
 37 84  1  0  0  0
 38 39  2  0  0  0
 38 85  1  0  0  0
 39 40  1  0  0  0
 39 86  1  0  0  0
 40 41  2  0  0  0
 40 87  1  0  0  0
 41 42  1  0  0  0
 42 43  1  0  0  0
 42 88  1  0  0  0
 42 89  1  0  0  0
 43 44  1  0  0  0
 43 90  1  0  0  0
 44 91  1  0  0  0
 45 92  1  0  0  0
M  CHG  1  20   1
M  END
> <s_m_entry_id>
672

> <s_m_entry_name>
Compounds-withfrags-for-validation-docking.1913

> <s_m_Source_Path>
/home/rodolpho/data/melina/maestro/glide-dock_XP_5RGK_M-PRO_VALIDATION

> <s_m_Source_File>
glide-dock_XP_5RGK_M-PRO_VALIDATION_pv.maegz

> <i_m_Source_File_Index>
672

> <CID>
Indinavir

> <Potency>
43.13

> <pIC50>
4.36522

> <Source>
https://doi.org/10.1101/2020.03.23.004580

> <smiles>
C(C(C([H])([H])[H])(C([H])([H])[H])N(C(=O)C1(C([H])([H])N(C(C2=C([H])C([H])=C([H])N=C2[H])([H])[H])C([H])([H])C([H])([H])N1C(C(C(C(C(C1=C([H])C([H])=C([H])C([H])=C1[H])([H])[H])(C(=O)N(C1(C2=C(C(=C(C([H])=C2C([H])([H])C1(O[H])[H])[H])[H])[H])[H])[H])[H])([H])[H])(O[H])[H])([H])[H])[H])[H])([H])([H])[H]

> <Outcome>
Inactive

> <StandardizerResult>
Clear Stereo (ID: ClearStereo)
Wedge Clean (ID: WedgeClean)
Mesomerize (ID: Mesomerize)
Tautomerize (ID: Tautomerize)
Aromatize (ID: Aromatize)
Add Explicit Hydrogens (ID: AddExplicitH)
Neutralize (ID: Neutralize)
Clean 2D (ID: Clean2D)

> <chiral flag>
0

> <version>
0

> <i_lp_mmshare_version>
41011

> <i_f3d_flags>
0

> <s_epik_input>
W2NIXTFuW2NIXVtjSF1bY0hdYzFbQ0gyXU4oW0NIMl1bQ0BIXTJDKD1PKVtOSF1DKFtDSDNdKShbQ0gzXSlbQ0gzXSlbQ0gyXVtDSDJdTjJbQ0gyXVtDQEhdKFtPSF0pW0NIMl1bQ0BIXShbQ0gyXWMzW2NIXVtjSF1bY0hdW2NIXVtjSF0zKUMoPU8pW05IXVtDQEhdNFtDQEBIXShbT0hdKVtDSDJdYyhjNDUpW2NIXVtjSF1bY0hdW2NIXTU=

> <s_epik_cmdline>
J2VwaWtfcHl0aG9uJywgJy1waHQnLCAnMC41JywgJy1waCcsICc3LjQnLCAnLXRuJywgJzgnLCAnLW1hJywgJzIwMCcsICctaW1hZScsICc8aW5maWxlLm1hZT4nLCAnLW9tYWUnLCAnPG91dGZpbGUubWFlPic=

> <r_epik_Ionization_Penalty>
0.3395

> <r_epik_Ionization_Penalty_Charging>
0.3352

> <r_epik_Ionization_Penalty_Neutral>
0.0044

> <r_epik_State_Penalty>
0.5191

> <r_epik_Charging_Adjusted_Penalty>
0.854238

> <i_epik_Tot_Q>
1

> <i_epik_Tot_abs_Q>
1

> <s_lp_Force_Field>
OPLS3

> <r_lp_Energy>
50.0956

> <b_lp_Chiralities_Consistent>
1

> <s_lp_Variant>
ligprep_COVID_compounds-withfrags-smallmolecules-forvalidation.maegz:4-3

> <i_glide_original_lignum>
22

> <s_i_glide_gridfile>
glide-grid_5RGK_M-PRO_COVID

> <i_i_glide_lignum>
22

> <r_i_docking_score>
-4.83933397128335

> <r_i_glide_ligand_efficiency>
-0.107540754917408

> <r_i_glide_ligand_efficiency_sa>
-0.382510990640171

> <r_i_glide_ligand_efficiency_ln>
-1.00679712411316

> <r_glide_XP_GScore>
-5.35840597128335

> <r_i_glide_gscore>
-5.35840597128335

> <r_i_glide_evdw>
-27.0330371856689

> <r_i_glide_ecoul>
-17.2684459686279

> <r_i_glide_energy>
-44.3014831542969

> <r_i_glide_einternal>
11.6760711669922

> <r_i_glide_emodel>
-58.0428914557062

> <r_glide_XP_HBond>
-1.37398819310444

> <i_i_glide_confnum>
1

> <i_i_glide_posenum>
14

> <r_i_glide_eff_state_penalty>
0.519072

> <i_glide_XP_PoseRank>
1

> <r_lp_tautomer_probability>


> <s_epik_Chemistry_Notes>


> <MW>


> <cLogP>


> <TPSA>


> <Rotatable Bonds>


> <Fraction sp3>


> <HBA>


> <HBD>


> <Structure ID>


> <Submission Fragments>


$$$$
ligprep_COVID_compounds-withfrags-smallmolecules-forvalidation.maegz:60
                    3D
 Structure written by MMmdl.
 54 56  0  0  1  0            999 V2000
    4.3995    1.8968   21.4625 C   0  0  0  0  0  0
    5.1383    1.1446   20.3699 C   0  0  0  0  0  0
    4.7763    1.4321   19.0405 C   0  0  0  0  0  0
    5.5007    0.8539   17.9867 C   0  0  0  0  0  0
    6.5389    0.0174   18.1709 N   0  0  0  0  0  0
    6.8625   -0.2860   19.4445 C   0  0  0  0  0  0
    6.2108    0.2317   20.5875 C   0  0  0  0  0  0
    6.7724   -0.1650   21.8360 N   0  0  0  0  0  0
    6.2002   -0.3772   23.0370 C   0  0  0  0  0  0
    5.0223   -0.1637   23.3094 O   0  0  0  0  0  0
    7.1253   -0.9378   24.1201 C   0  0  0  0  0  0
    6.8142   -2.4065   24.3628 C   0  0  0  0  0  0
    7.3336   -3.3828   23.4914 C   0  0  0  0  0  0
    7.0012   -4.7349   23.6771 C   0  0  0  0  0  0
    7.5748   -5.9189   22.5696 Cl  0  0  0  0  0  0
    6.1712   -5.1233   24.7438 C   0  0  0  0  0  0
    5.6538   -4.1577   25.6317 C   0  0  0  0  0  0
    4.7928   -4.4858   26.6532 O   0  0  0  0  0  0
    5.1126   -5.6181   27.4606 C   0  0  0  0  0  0
    6.2642   -5.2305   28.4113 C   0  0  0  0  0  0
    6.2480   -5.7627   29.7781 N   0  0  0  0  0  0
    6.6008   -7.1730   29.8429 C   0  0  0  0  0  0
    6.7750   -7.6148   31.3080 C   0  0  0  0  0  0
    5.5636   -7.3787   32.0189 O   0  0  0  0  0  0
    5.1979   -6.0034   32.0126 C   0  0  0  0  0  0
    5.0267   -5.5000   30.5612 C   0  0  1  0  0  0
    4.5770   -4.0280   30.5878 C   0  0  0  0  0  0
    5.9735   -2.7976   25.4290 C   0  0  0  0  0  0
    3.5920    1.2936   21.8722 H   0  0  0  0  0  0
    3.9514    2.8040   21.0608 H   0  0  0  0  0  0
    5.0768    2.2057   22.2575 H   0  0  0  0  0  0
    3.9822    2.1337   18.8205 H   0  0  0  0  0  0
    5.2480    1.0926   16.9678 H   0  0  0  0  0  0
    7.6970   -0.9635   19.5531 H   0  0  0  0  0  0
    7.7330   -0.4898   21.7707 H   0  0  0  0  0  0
    8.1718   -0.8269   23.8333 H   0  0  0  0  0  0
    6.9925   -0.3676   25.0391 H   0  0  0  0  0  0
    7.9588   -3.0959   22.6586 H   0  0  0  0  0  0
    5.9076   -6.1638   24.8445 H   0  0  0  0  0  0
    4.2012   -5.8495   28.0077 H   0  0  0  0  0  0
    5.3502   -6.5183   26.8927 H   0  0  0  0  0  0
    7.2156   -5.4719   27.9362 H   0  0  0  0  0  0
    6.2737   -4.1505   28.4858 H   0  0  0  0  0  0
    5.8265   -7.7707   29.3621 H   0  0  0  0  0  0
    7.5226   -7.3597   29.2917 H   0  0  0  0  0  0
    7.0581   -8.6639   31.3725 H   0  0  0  0  0  0
    7.5748   -7.0530   31.7868 H   0  0  0  0  0  0
    4.2651   -5.8898   32.5662 H   0  0  0  0  0  0
    5.9526   -5.4159   32.5409 H   0  0  0  0  0  0
    4.2075   -6.0799   30.1353 H   0  0  0  0  0  0
    3.6714   -3.9118   31.1822 H   0  0  0  0  0  0
    4.3525   -3.6456   29.5920 H   0  0  0  0  0  0
    5.3368   -3.3880   31.0348 H   0  0  0  0  0  0
    5.5550   -2.0497   26.0885 H   0  0  0  0  0  0
  1  2  1  0  0  0
  1 29  1  0  0  0
  1 30  1  0  0  0
  1 31  1  0  0  0
  2  3  2  0  0  0
  2  7  1  0  0  0
  3  4  1  0  0  0
  3 32  1  0  0  0
  4  5  2  0  0  0
  4 33  1  0  0  0
  5  6  1  0  0  0
  6  7  2  0  0  0
  6 34  1  0  0  0
  7  8  1  0  0  0
  8  9  1  0  0  0
  8 35  1  0  0  0
  9 10  2  0  0  0
  9 11  1  0  0  0
 11 12  1  0  0  0
 11 36  1  0  0  0
 11 37  1  0  0  0
 12 13  2  0  0  0
 12 28  1  0  0  0
 13 14  1  0  0  0
 13 38  1  0  0  0
 14 15  1  0  0  0
 14 16  2  0  0  0
 16 17  1  0  0  0
 16 39  1  0  0  0
 17 18  1  0  0  0
 17 28  2  0  0  0
 18 19  1  0  0  0
 19 20  1  0  0  0
 19 40  1  0  0  0
 19 41  1  0  0  0
 20 21  1  0  0  0
 20 42  1  0  0  0
 20 43  1  0  0  0
 21 22  1  0  0  0
 21 26  1  0  0  0
 22 23  1  0  0  0
 22 44  1  0  0  0
 22 45  1  0  0  0
 23 24  1  0  0  0
 23 46  1  0  0  0
 23 47  1  0  0  0
 24 25  1  0  0  0
 25 26  1  0  0  0
 25 48  1  0  0  0
 25 49  1  0  0  0
 26 27  1  0  0  0
 26 50  1  0  0  0
 27 51  1  0  0  0
 27 52  1  0  0  0
 27 53  1  0  0  0
 28 54  1  0  0  0
M  END
> <s_m_entry_id>
678

> <s_m_entry_name>
Compounds-withfrags-for-validation-docking.1857

> <s_m_Source_Path>
/home/rodolpho/data/melina/maestro/glide-dock_XP_5RGK_M-PRO_VALIDATION

> <s_m_Source_File>
glide-dock_XP_5RGK_M-PRO_VALIDATION_pv.maegz

> <i_m_Source_File_Index>
678

> <CID>
MAT-POS-500ca5bf-1

> <Potency>
99.5

> <pIC50>
4.00218

> <Source>
Postera

> <smiles>
Cc1ccncc1NC(=O)Cc1cc(Cl)cc(OCCN2CCOCC2C)c1

> <Outcome>
Inactive

> <StandardizerResult>
Clear Stereo (ID: ClearStereo)
Wedge Clean (ID: WedgeClean)
Mesomerize (ID: Mesomerize)
Tautomerize (ID: Tautomerize)
Aromatize (ID: Aromatize)
Add Explicit Hydrogens (ID: AddExplicitH)
Neutralize (ID: Neutralize)
Clean 2D (ID: Clean2D)

> <chiral flag>
0

> <version>
0

> <i_lp_mmshare_version>
41011

> <i_f3d_flags>
0

> <s_epik_input>
W0NIM11jMVtjSF1bY0hdbltjSF1jMVtOSF1DKD1PKVtDSDJdYzJbY0hdYyhDbClbY0hdYyhbY0hdMilPW0NIMl1bQ0gyXU4zW0NIMl1bQ0gyXU9bQ0gyXVtDQEhdM1tDSDNd

> <s_epik_cmdline>
J2VwaWtfcHl0aG9uJywgJy1waHQnLCAnMC41JywgJy1waCcsICc3LjQnLCAnLXRuJywgJzgnLCAnLW1hJywgJzIwMCcsICctaW1hZScsICc8aW5maWxlLm1hZT4nLCAnLW9tYWUnLCAnPG91dGZpbGUubWFlPic=

> <r_lp_tautomer_probability>
1.0

> <r_epik_Ionization_Penalty>
0.0296

> <r_epik_Ionization_Penalty_Charging>
0.0

> <r_epik_Ionization_Penalty_Neutral>
0.0296

> <r_epik_State_Penalty>
0.0215

> <r_epik_Charging_Adjusted_Penalty>
0.0215153

> <i_epik_Tot_Q>
0

> <i_epik_Tot_abs_Q>
0

> <s_lp_Force_Field>
OPLS3

> <r_lp_Energy>
36.9135

> <b_lp_Chiralities_Consistent>
1

> <s_lp_Variant>
ligprep_COVID_compounds-withfrags-smallmolecules-forvalidation.maegz:60-1

> <i_glide_original_lignum>
231

> <s_i_glide_gridfile>
glide-grid_5RGK_M-PRO_COVID

> <i_i_glide_lignum>
231

> <r_i_docking_score>
-4.83328603951903

> <r_i_glide_ligand_efficiency>
-0.172617358554251

> <r_i_glide_ligand_efficiency_sa>
-0.524167966757934

> <r_i_glide_ligand_efficiency_ln>
-1.11566432936555

> <r_glide_XP_GScore>
-4.85480133951903

> <r_i_glide_gscore>
-4.85480133951903

> <r_i_glide_evdw>
-36.7454681396484

> <r_i_glide_ecoul>
-13.2875690460205

> <r_i_glide_energy>
-50.0330371856689

> <r_i_glide_einternal>
20.755464553833

> <r_i_glide_emodel>
-54.9540939331055

> <r_glide_XP_HBond>
-0.830341170192716

> <i_i_glide_confnum>
1

> <i_i_glide_posenum>
1

> <r_i_glide_eff_state_penalty>
0.0215153

> <i_glide_XP_PoseRank>
1

> <MW>
403.17

> <cLogP>
3.32

> <TPSA>
63.69

> <Rotatable Bonds>
7

> <Fraction sp3>
0.43

> <HBA>
5

> <HBD>
1

> <s_epik_Chemistry_Notes>


> <Structure ID>


> <Submission Fragments>


$$$$
ligprep_COVID_compounds-withfrags-smallmolecules-forvalidation.maegz:79
                    3D
 Structure written by MMmdl.
 48 51  0  0  1  0            999 V2000
    4.5817    1.2508   20.3902 C   0  0  0  0  0  0
    5.4323    0.9512   21.6068 C   0  0  0  0  0  0
    6.4939    1.7973   21.9464 C   0  0  0  0  0  0
    7.2883    1.5397   23.0705 C   0  0  0  0  0  0
    7.1116    0.3685   23.8391 C   0  0  0  0  0  0
    8.0671    0.0842   25.0164 C   0  0  1  0  0  0
    7.7069   -1.1334   25.9252 C   0  0  0  0  0  0
    8.0526   -2.5114   25.3964 C   0  0  0  0  0  0
    7.8161   -3.1090   24.1200 C   0  0  0  0  0  0
    8.3673   -4.3038   23.9977 N   0  0  0  0  0  0
    8.9791   -4.5078   25.1789 N   0  0  0  0  0  0
    9.7542   -5.7043   25.3800 C   0  0  0  0  0  0
    8.7749   -3.4680   26.0517 C   0  0  0  0  0  0
    9.5370    0.0940   24.5297 C   0  0  0  0  0  0
   10.0883   -0.9461   24.1708 O   0  0  0  0  0  0
   10.1494    1.2926   24.4990 N   0  0  0  0  0  0
   11.3187    1.6312   23.7697 C   0  0  0  0  0  0
   12.1674    0.7952   23.2135 N   0  0  0  0  0  0
   13.0726    1.5733   22.5707 N   0  0  0  0  0  0
   12.8277    2.9280   22.6891 C   0  0  0  0  0  0
   13.4863    4.0765   22.2209 C   0  0  0  0  0  0
   12.9876    5.3412   22.5812 C   0  0  0  0  0  0
   11.8159    5.4362   23.3619 C   0  0  0  0  0  0
   11.1292    4.2772   23.7704 C   0  0  0  0  0  0
   11.6472    2.9948   23.4795 C   0  0  0  0  0  0
    6.0063   -0.4565   23.5223 C   0  0  0  0  0  0
    5.1801   -0.1638   22.4184 C   0  0  0  0  0  0
    3.9754    0.3902   20.1097 H   0  0  0  0  0  0
    5.2112    1.5159   19.5401 H   0  0  0  0  0  0
    3.9191    2.0928   20.5928 H   0  0  0  0  0  0
    6.7347    2.6363   21.3235 H   0  0  0  0  0  0
    8.0805    2.2385   23.2841 H   0  0  0  0  0  0
    7.9723    0.9582   25.6617 H   0  0  0  0  0  0
    8.2320   -0.9852   26.8698 H   0  0  0  0  0  0
    6.6550   -1.0796   26.2040 H   0  0  0  0  0  0
    7.3074   -2.7100   23.2566 H   0  0  0  0  0  0
   10.2323   -5.6931   26.3603 H   0  0  0  0  0  0
   10.5211   -5.7634   24.6087 H   0  0  0  0  0  0
    9.0935   -6.5639   25.3186 H   0  0  0  0  0  0
    9.2025   -3.4755   27.0406 H   0  0  0  0  0  0
    9.6134    2.0729   24.8479 H   0  0  0  0  0  0
   13.8324    1.1554   22.0503 H   0  0  0  0  0  0
   14.3712    3.9783   21.6084 H   0  0  0  0  0  0
   13.4962    6.2366   22.2549 H   0  0  0  0  0  0
   11.4224    6.4019   23.6432 H   0  0  0  0  0  0
   10.2204    4.3734   24.3460 H   0  0  0  0  0  0
    5.7712   -1.3300   24.1093 H   0  0  0  0  0  0
    4.3745   -0.8328   22.1735 H   0  0  0  0  0  0
  1  2  1  0  0  0
  1 28  1  0  0  0
  1 29  1  0  0  0
  1 30  1  0  0  0
  2  3  2  0  0  0
  2 27  1  0  0  0
  3  4  1  0  0  0
  3 31  1  0  0  0
  4  5  2  0  0  0
  4 32  1  0  0  0
  5  6  1  0  0  0
  5 26  1  0  0  0
  6  7  1  0  0  0
  6 14  1  0  0  0
  6 33  1  0  0  0
  7  8  1  0  0  0
  7 34  1  0  0  0
  7 35  1  0  0  0
  8  9  1  0  0  0
  8 13  2  0  0  0
  9 10  2  0  0  0
  9 36  1  0  0  0
 10 11  1  0  0  0
 11 12  1  0  0  0
 11 13  1  0  0  0
 12 37  1  0  0  0
 12 38  1  0  0  0
 12 39  1  0  0  0
 13 40  1  0  0  0
 14 15  2  0  0  0
 14 16  1  0  0  0
 16 41  1  0  0  0
 16 17  1  0  0  0
 17 25  1  0  0  0
 17 18  2  0  0  0
 18 19  1  0  0  0
 19 42  1  0  0  0
 19 20  1  0  0  0
 20 21  1  0  0  0
 20 25  2  0  0  0
 21 43  1  0  0  0
 21 22  2  0  0  0
 22 44  1  0  0  0
 22 23  1  0  0  0
 23 45  1  0  0  0
 23 24  2  0  0  0
 24 46  1  0  0  0
 24 25  1  0  0  0
 26 27  2  0  0  0
 26 47  1  0  0  0
 27 48  1  0  0  0
M  END
> <s_m_entry_id>
702

> <s_m_entry_name>
Compounds-withfrags-for-validation-docking.1838

> <s_m_Source_Path>
/home/rodolpho/data/melina/maestro/glide-dock_XP_5RGK_M-PRO_VALIDATION

> <s_m_Source_File>
glide-dock_XP_5RGK_M-PRO_VALIDATION_pv.maegz

> <i_m_Source_File_Index>
702

> <CID>
ALP-POS-a3de0cb1-5

> <Potency>
99.5

> <pIC50>
4.00218

> <Source>
Postera

> <smiles>
Cc1ccc(C(Cc2cnn(C)c2)C(=O)Nc2n[nH]c3ccccc23)cc1

> <Outcome>
Inactive

> <StandardizerResult>
Clear Stereo (ID: ClearStereo)
Wedge Clean (ID: WedgeClean)
Mesomerize (ID: Mesomerize)
Tautomerize (ID: Tautomerize)
Aromatize (ID: Aromatize)
Add Explicit Hydrogens (ID: AddExplicitH)
Neutralize (ID: Neutralize)
Clean 2D (ID: Clean2D)

> <chiral flag>
0

> <version>
0

> <i_lp_mmshare_version>
41011

> <i_f3d_flags>
0

> <s_epik_input>
W0NIM11uKFtjSF0xKW5bY0hdYzFbQ0gyXVtDQEhdKGMoW2NIXVtjSF0yKVtjSF1bY0hdYzJbQ0gzXSlDKD1PKVtOSF1jKFtuSF1uMyljKGMzNClbY0hdW2NIXVtjSF1bY0hdNA==

> <s_epik_cmdline>
J2VwaWtfcHl0aG9uJywgJy1waHQnLCAnMC41JywgJy1waCcsICc3LjQnLCAnLXRuJywgJzgnLCAnLW1hJywgJzIwMCcsICctaW1hZScsICc8aW5maWxlLm1hZT4nLCAnLW9tYWUnLCAnPG91dGZpbGUubWFlPic=

> <r_lp_tautomer_probability>
1.0

> <r_epik_Ionization_Penalty>
1.0E-4

> <r_epik_Ionization_Penalty_Charging>
0.0

> <r_epik_Ionization_Penalty_Neutral>
1.0E-4

> <r_epik_State_Penalty>
0.0

> <r_epik_Charging_Adjusted_Penalty>
0.0

> <i_epik_Tot_Q>
0

> <i_epik_Tot_abs_Q>
0

> <s_lp_Force_Field>
OPLS3

> <r_lp_Energy>
27.6914

> <b_lp_Chiralities_Consistent>
1

> <s_lp_Variant>
ligprep_COVID_compounds-withfrags-smallmolecules-forvalidation.maegz:79-1

> <i_glide_original_lignum>
258

> <s_i_glide_gridfile>
glide-grid_5RGK_M-PRO_COVID

> <i_i_glide_lignum>
258

> <r_i_docking_score>
-4.81644142426826

> <r_i_glide_ligand_efficiency>
-0.178386719417343

> <r_i_glide_ligand_efficiency_sa>
-0.535160157664096

> <r_i_glide_ligand_efficiency_ln>
-1.12118815832692

> <r_glide_XP_GScore>
-4.81644142426826

> <r_i_glide_gscore>
-4.81644142426826

> <r_i_glide_evdw>
-39.1300506591797

> <r_i_glide_ecoul>
-7.15074300765991

> <r_i_glide_energy>
-46.2807936668396

> <r_i_glide_einternal>
4.72904205322266

> <r_i_glide_emodel>
-63.7515203126221

> <r_glide_XP_HBond>
-0.626068109781548

> <i_i_glide_confnum>
1

> <i_i_glide_posenum>
4

> <r_i_glide_eff_state_penalty>
0.0

> <i_glide_XP_PoseRank>
1

> <MW>
359.17

> <cLogP>
3.57

> <TPSA>
75.6

> <Rotatable Bonds>
5

> <Fraction sp3>
0.19

> <HBA>
4

> <HBD>
2

> <s_epik_Chemistry_Notes>


> <Structure ID>


> <Submission Fragments>


$$$$
ligprep_COVID_compounds-withfrags-smallmolecules-forvalidation.maegz:103
                    3D
 Structure written by MMmdl.
 52 54  0  0  1  0            999 V2000
    9.3852   -4.6634   27.1995 C   0  0  0  0  0  0
    9.4451   -5.0198   25.7017 C   0  0  0  0  0  0
    8.4118   -4.3059   24.7772 C   0  0  0  0  0  0
    8.9345   -4.2858   23.3195 C   0  0  0  0  0  0
    7.0932   -5.1186   24.7933 C   0  0  0  0  0  0
    8.1330   -2.8394   25.2229 C   0  0  0  0  0  0
    7.2603   -1.9988   24.2622 C   0  0  0  0  0  0
    7.7217   -0.6068   24.1268 N   0  0  0  0  0  0
    6.6442    0.3776   23.9269 C   0  0  0  0  0  0
    6.1968    0.4554   22.4785 C   0  0  0  0  0  0
    5.6752    1.6066   21.8652 C   0  0  0  0  0  0
    5.3243    1.4271   20.5346 C   0  0  0  0  0  0
    5.6082   -0.1933   20.0041 S   0  0  0  0  0  0
    6.1958   -0.6101   21.5803 C   0  0  0  0  0  0
    9.0395   -0.2896   24.2529 C   0  0  0  0  0  0
    9.9207   -1.1542   24.2605 O   0  0  0  0  0  0
    9.4456    1.1964   24.3739 C   0  0  0  0  0  0
   10.7421    1.5333   23.7889 N   0  0  0  0  0  0
   11.5761    0.5582   23.3744 N   0  0  0  0  0  0
   12.7078    1.1434   22.8505 N   0  0  0  0  0  0
   12.5459    2.4942   22.9381 C   0  0  0  0  0  0
   13.3933    3.5387   22.5441 C   0  0  0  0  0  0
   12.9571    4.8476   22.7553 C   0  0  0  0  0  0
   11.7173    5.1139   23.3391 C   0  0  0  0  0  0
   10.8532    4.0919   23.7424 C   0  0  0  0  0  0
   11.2920    2.7795   23.5324 C   0  0  0  0  0  0
   10.1510   -5.2078   27.7525 H   0  0  0  0  0  0
    8.4238   -4.9255   27.6410 H   0  0  0  0  0  0
    9.5573   -3.6013   27.3719 H   0  0  0  0  0  0
   10.4538   -4.8072   25.3432 H   0  0  0  0  0  0
    9.3368   -6.1011   25.6068 H   0  0  0  0  0  0
    8.1969   -3.8628   22.6359 H   0  0  0  0  0  0
    9.1682   -5.2895   22.9616 H   0  0  0  0  0  0
    9.8393   -3.6861   23.2177 H   0  0  0  0  0  0
    6.3231   -4.6485   24.1798 H   0  0  0  0  0  0
    6.6875   -5.2222   25.8000 H   0  0  0  0  0  0
    7.2410   -6.1283   24.4071 H   0  0  0  0  0  0
    7.6663   -2.8441   26.2090 H   0  0  0  0  0  0
    9.0840   -2.3227   25.3652 H   0  0  0  0  0  0
    7.2451   -2.4761   23.2833 H   0  0  0  0  0  0
    6.2240   -2.0035   24.6026 H   0  0  0  0  0  0
    5.7834    0.1566   24.5569 H   0  0  0  0  0  0
    6.9948    1.3482   24.2806 H   0  0  0  0  0  0
    5.5646    2.5502   22.3788 H   0  0  0  0  0  0
    4.9143    2.1601   19.8554 H   0  0  0  0  0  0
    6.5210   -1.6217   21.7688 H   0  0  0  0  0  0
    8.6976    1.8210   23.8845 H   0  0  0  0  0  0
    9.4633    1.4772   25.4272 H   0  0  0  0  0  0
   14.3528    3.3413   22.0895 H   0  0  0  0  0  0
   13.5905    5.6711   22.4597 H   0  0  0  0  0  0
   11.4168    6.1413   23.4832 H   0  0  0  0  0  0
    9.8958    4.3123   24.1912 H   0  0  0  0  0  0
  1  2  1  0  0  0
  1 27  1  0  0  0
  1 28  1  0  0  0
  1 29  1  0  0  0
  2  3  1  0  0  0
  2 30  1  0  0  0
  2 31  1  0  0  0
  3  4  1  0  0  0
  3  5  1  0  0  0
  3  6  1  0  0  0
  4 32  1  0  0  0
  4 33  1  0  0  0
  4 34  1  0  0  0
  5 35  1  0  0  0
  5 36  1  0  0  0
  5 37  1  0  0  0
  6  7  1  0  0  0
  6 38  1  0  0  0
  6 39  1  0  0  0
  7  8  1  0  0  0
  7 40  1  0  0  0
  7 41  1  0  0  0
  8  9  1  0  0  0
  8 15  1  0  0  0
  9 10  1  0  0  0
  9 42  1  0  0  0
  9 43  1  0  0  0
 10 11  1  0  0  0
 10 14  2  0  0  0
 11 12  2  0  0  0
 11 44  1  0  0  0
 12 13  1  0  0  0
 12 45  1  0  0  0
 13 14  1  0  0  0
 14 46  1  0  0  0
 15 16  2  0  0  0
 15 17  1  0  0  0
 17 18  1  0  0  0
 17 47  1  0  0  0
 17 48  1  0  0  0
 18 19  1  0  0  0
 18 26  1  0  0  0
 19 20  2  0  0  0
 20 21  1  0  0  0
 21 22  2  0  0  0
 21 26  1  0  0  0
 22 23  1  0  0  0
 22 49  1  0  0  0
 23 24  2  0  0  0
 23 50  1  0  0  0
 24 25  1  0  0  0
 24 51  1  0  0  0
 25 26  2  0  0  0
 25 52  1  0  0  0
M  END
> <s_m_entry_id>
712

> <s_m_entry_name>
Compounds-withfrags-for-validation-docking.1814

> <s_m_Source_Path>
/home/rodolpho/data/melina/maestro/glide-dock_XP_5RGK_M-PRO_VALIDATION

> <s_m_Source_File>
glide-dock_XP_5RGK_M-PRO_VALIDATION_pv.maegz

> <i_m_Source_File_Index>
712

> <CID>
RUT-UNI-630c5802-20

> <Potency>
78.458

> <pIC50>
4.10536

> <Source>
Postera

> <smiles>
CCC(C)(C)CCN(Cc1ccsc1)C(=O)Cn1nnc2ccccc21

> <Outcome>
Inactive

> <StandardizerResult>
Clear Stereo (ID: ClearStereo)
Wedge Clean (ID: WedgeClean)
Mesomerize (ID: Mesomerize)
Tautomerize (ID: Tautomerize)
Aromatize (ID: Aromatize)
Add Explicit Hydrogens (ID: AddExplicitH)
Neutralize (ID: Neutralize)
Clean 2D (ID: Clean2D)

> <chiral flag>
0

> <version>
0

> <i_lp_mmshare_version>
41011

> <i_f3d_flags>
0

> <s_epik_input>
W2NIXTFzW2NIXVtjSF1jMVtDSDJdTihbQ0gyXVtDSDJdQyhbQ0gzXSkoW0NIM10pW0NIMl1bQ0gzXSlDKD1PKVtDSDJdbihubjIpYyhjMjMpW2NIXVtjSF1bY0hdW2NIXTM=

> <s_epik_cmdline>
J2VwaWtfcHl0aG9uJywgJy1waHQnLCAnMC41JywgJy1waCcsICc3LjQnLCAnLXRuJywgJzgnLCAnLW1hJywgJzIwMCcsICctaW1hZScsICc8aW5maWxlLm1hZT4nLCAnLW9tYWUnLCAnPG91dGZpbGUubWFlPic=

> <r_lp_tautomer_probability>
1.0

> <r_epik_Ionization_Penalty>
0.0

> <r_epik_Ionization_Penalty_Charging>
0.0

> <r_epik_Ionization_Penalty_Neutral>
0.0

> <r_epik_State_Penalty>
0.0

> <r_epik_Charging_Adjusted_Penalty>
0.0

> <i_epik_Tot_Q>
0

> <i_epik_Tot_abs_Q>
0

> <s_lp_Force_Field>
OPLS3

> <r_lp_Energy>
26.0044

> <b_lp_Chiralities_Consistent>
1

> <s_lp_Variant>
ligprep_COVID_compounds-withfrags-smallmolecules-forvalidation.maegz:103-1

> <i_glide_original_lignum>
292

> <s_i_glide_gridfile>
glide-grid_5RGK_M-PRO_COVID

> <i_i_glide_lignum>
292

> <r_i_docking_score>
-4.80693495002761

> <r_i_glide_ligand_efficiency>
-0.1848821134626

> <r_i_glide_ligand_efficiency_sa>
-0.547712533656965

> <r_i_glide_ligand_efficiency_ln>
-1.12889290017392

> <r_glide_XP_GScore>
-4.80693495002761

> <r_i_glide_gscore>
-4.80693495002761

> <r_i_glide_evdw>
-35.0082244873047

> <r_i_glide_ecoul>
-6.10246658325195

> <r_i_glide_energy>
-41.1106910705566

> <r_i_glide_einternal>
2.30088901519775

> <r_i_glide_emodel>
-59.3462900668957

> <r_glide_XP_HBond>
-0.280721135174844

> <i_i_glide_confnum>
2

> <i_i_glide_posenum>
1

> <r_i_glide_eff_state_penalty>
0.0

> <i_glide_XP_PoseRank>
1

> <MW>
370.522

> <cLogP>
4.3479

> <TPSA>
51.02

> <Rotatable Bonds>
8

> <Fraction sp3>
0.45

> <HBA>
5

> <HBD>
0

> <Submission Fragments>
x0434,x0678

> <s_epik_Chemistry_Notes>


> <Structure ID>


$$$$
ligprep_COVID_compounds-withfrags-smallmolecules-forvalidation.maegz:77
                    3D
 Structure written by MMmdl.
 49 52  0  0  1  0            999 V2000
   12.0370    4.2044   23.1318 C   0  0  0  0  0  0
   12.2138    2.7676   23.2988 N   0  0  0  0  0  0
   13.3446    2.1182   22.6455 C   0  0  0  0  0  0
   11.1537    1.9661   23.7707 C   0  0  0  0  0  0
    9.8175    2.4318   23.7858 C   0  0  0  0  0  0
    8.7661    1.5741   24.1728 C   0  0  0  0  0  0
    9.0205    0.2444   24.5863 C   0  0  0  0  0  0
    7.8560   -0.6659   25.0004 C   0  0  2  0  0  0
    8.0977   -1.6368   26.2053 C   0  0  0  0  0  0
    8.5178   -3.0830   26.0010 C   0  0  0  0  0  0
    8.0692   -4.1195   26.8830 C   0  0  0  0  0  0
    8.5505   -5.3635   26.5711 C   0  0  0  0  0  0
    9.5750   -5.3132   25.1739 S   0  0  0  0  0  0
    9.3488   -3.5921   25.0293 C   0  0  0  0  0  0
    7.1212   -1.2298   23.7656 C   0  0  0  0  0  0
    7.4282   -2.3297   23.3048 O   0  0  0  0  0  0
    6.1826   -0.3516   23.2430 N   0  0  0  0  0  0
    6.0485   -0.3007   21.9517 C   0  0  0  0  0  0
    6.7749   -0.8789   20.9140 N   0  0  0  0  0  0
    6.3944   -0.4779   19.6927 N   0  0  0  0  0  0
    5.4082    0.3289   19.8857 C   0  0  0  0  0  0
    4.5840    1.0862   18.9702 C   0  0  0  0  0  0
    3.5749    1.8363   19.4722 C   0  0  0  0  0  0
    3.3172    1.9142   20.9051 C   0  0  0  0  0  0
    4.1257    1.2302   21.7349 C   0  0  0  0  0  0
    5.1615    0.4460   21.2354 N   0  0  0  0  0  0
   10.3539   -0.1956   24.6180 C   0  0  0  0  0  0
   11.3997    0.6438   24.1998 C   0  0  0  0  0  0
   11.4239    4.6310   23.9262 H   0  0  0  0  0  0
   11.5742    4.4240   22.1708 H   0  0  0  0  0  0
   13.0024    4.7104   23.1604 H   0  0  0  0  0  0
   13.9655    1.5937   23.3706 H   0  0  0  0  0  0
   13.9776    2.8475   22.1395 H   0  0  0  0  0  0
   13.0055    1.3957   21.9027 H   0  0  0  0  0  0
    9.5657    3.4282   23.4532 H   0  0  0  0  0  0
    7.7510    1.9444   24.1403 H   0  0  0  0  0  0
    7.1750    0.0608   25.4230 H   0  0  0  0  0  0
    8.7900   -1.1602   26.8997 H   0  0  0  0  0  0
    7.1562   -1.6584   26.7565 H   0  0  0  0  0  0
    7.4131   -3.9197   27.7173 H   0  0  0  0  0  0
    8.3749   -6.3110   27.0682 H   0  0  0  0  0  0
    9.8212   -3.0809   24.2069 H   0  0  0  0  0  0
    4.7458    1.0737   17.9023 H   0  0  0  0  0  0
    2.9713    2.4229   18.7951 H   0  0  0  0  0  0
    2.5211    2.5332   21.2906 H   0  0  0  0  0  0
    4.0273    1.2444   22.8106 H   0  0  0  0  0  0
   10.5846   -1.1868   24.9604 H   0  0  0  0  0  0
   12.4006    0.2495   24.2182 H   0  0  0  0  0  0
    7.6647   -1.3636   21.0566 H   0  0  0  0  0  0
  1  2  1  0  0  0
  1 29  1  0  0  0
  1 30  1  0  0  0
  1 31  1  0  0  0
  2  3  1  0  0  0
  2  4  1  0  0  0
  3 32  1  0  0  0
  3 33  1  0  0  0
  3 34  1  0  0  0
  4  5  2  0  0  0
  4 28  1  0  0  0
  5  6  1  0  0  0
  5 35  1  0  0  0
  6  7  2  0  0  0
  6 36  1  0  0  0
  7  8  1  0  0  0
  7 27  1  0  0  0
  8  9  1  0  0  0
  8 15  1  0  0  0
  8 37  1  0  0  0
  9 10  1  0  0  0
  9 38  1  0  0  0
  9 39  1  0  0  0
 10 11  1  0  0  0
 10 14  2  0  0  0
 11 12  2  0  0  0
 11 40  1  0  0  0
 12 13  1  0  0  0
 12 41  1  0  0  0
 13 14  1  0  0  0
 14 42  1  0  0  0
 15 16  2  0  0  0
 15 17  1  0  0  0
 17 18  2  0  0  0
 18 19  1  0  0  0
 18 26  1  0  0  0
 19 20  1  0  0  0
 19 49  1  0  0  0
 20 21  2  0  0  0
 21 22  1  0  0  0
 21 26  1  0  0  0
 22 23  2  0  0  0
 22 43  1  0  0  0
 23 24  1  0  0  0
 23 44  1  0  0  0
 24 25  2  0  0  0
 24 45  1  0  0  0
 25 26  1  0  0  0
 25 46  1  0  0  0
 27 28  2  0  0  0
 27 47  1  0  0  0
 28 48  1  0  0  0
M  END
> <s_m_entry_id>
723

> <s_m_entry_name>
Compounds-withfrags-for-validation-docking.1840

> <s_m_Source_Path>
/home/rodolpho/data/melina/maestro/glide-dock_XP_5RGK_M-PRO_VALIDATION

> <s_m_Source_File>
glide-dock_XP_5RGK_M-PRO_VALIDATION_pv.maegz

> <i_m_Source_File_Index>
723

> <CID>
ALP-POS-a3de0cb1-10

> <Potency>
99.5

> <pIC50>
4.00218

> <Source>
Postera

> <smiles>
CN(C)c1ccc(C(Cc2ccsc2)C(=O)Nc2nnc3ccccn23)cc1

> <Outcome>
Inactive

> <StandardizerResult>
Clear Stereo (ID: ClearStereo)
Wedge Clean (ID: WedgeClean)
Mesomerize (ID: Mesomerize)
Tautomerize (ID: Tautomerize)
Aromatize (ID: Aromatize)
Add Explicit Hydrogens (ID: AddExplicitH)
Neutralize (ID: Neutralize)
Clean 2D (ID: Clean2D)

> <chiral flag>
0

> <version>
0

> <i_lp_mmshare_version>
41011

> <i_f3d_flags>
0

> <s_epik_input>
W0NIM11OKFtDSDNdKWMxW2NIXVtjSF1jKFtjSF1bY0hdMSlbQ0BIXShbQ0gyXWMyW2NIXVtjSF1zW2NIXTIpQyg9TylbTkhdYyhubjMpbihjMzQpW2NIXVtjSF1bY0hdW2NIXTQ=

> <s_epik_cmdline>
J2VwaWtfcHl0aG9uJywgJy1waHQnLCAnMC41JywgJy1waCcsICc3LjQnLCAnLXRuJywgJzgnLCAnLW1hJywgJzIwMCcsICctaW1hZScsICc8aW5maWxlLm1hZT4nLCAnLW9tYWUnLCAnPG91dGZpbGUubWFlPic=

> <r_lp_tautomer_probability>
1.0

> <r_epik_Ionization_Penalty>
0.0786

> <r_epik_Ionization_Penalty_Charging>
0.0031

> <r_epik_Ionization_Penalty_Neutral>
0.0755

> <r_epik_State_Penalty>
0.0

> <r_epik_Charging_Adjusted_Penalty>
0.00307897

> <i_epik_Tot_Q>
0

> <i_epik_Tot_abs_Q>
0

> <s_lp_Force_Field>
OPLS3

> <r_lp_Energy>
54.0587

> <b_lp_Chiralities_Consistent>
1

> <s_lp_Variant>
ligprep_COVID_compounds-withfrags-smallmolecules-forvalidation.maegz:77-2

> <i_glide_original_lignum>
255

> <s_i_glide_gridfile>
glide-grid_5RGK_M-PRO_COVID

> <i_i_glide_lignum>
255

> <r_i_docking_score>
-4.79467529369406

> <r_i_glide_ligand_efficiency>
-0.171238403346216

> <r_i_glide_ligand_efficiency_sa>
-0.519980646585156

> <r_i_glide_ligand_efficiency_ln>
-1.10675183556839

> <r_glide_XP_GScore>
-4.79467529369406

> <r_i_glide_gscore>
-4.79467529369406

> <r_i_glide_evdw>
-42.6022338867188

> <r_i_glide_ecoul>
-8.64819431304932

> <r_i_glide_energy>
-51.2504281997681

> <r_i_glide_einternal>
4.31067562103271

> <r_i_glide_emodel>
-54.2556075436823

> <r_glide_XP_HBond>
0.0

> <i_i_glide_confnum>
1

> <i_i_glide_posenum>
1

> <r_i_glide_eff_state_penalty>
0.0

> <i_glide_XP_PoseRank>
1

> <MW>
391.15

> <cLogP>
3.82

> <TPSA>
62.53

> <Rotatable Bonds>
6

> <Fraction sp3>
0.19

> <HBA>
6

> <HBD>
1

> <s_epik_Chemistry_Notes>


> <Structure ID>


> <Submission Fragments>


$$$$
ligprep_COVID_compounds-withfrags-smallmolecules-forvalidation.maegz:47
                    3D
 Structure written by MMmdl.
 76 79  0  0  1  0            999 V2000
    5.6654   -5.6005   26.7240 C   0  0  0  0  0  0
    6.4734   -4.6037   25.8805 C   0  0  1  0  0  0
    6.4402   -3.1929   26.4998 C   0  0  0  0  0  0
    7.2315   -2.1528   25.6777 C   0  0  2  0  0  0
    6.4509   -1.6578   24.4369 C   0  0  0  0  0  0
    7.0225   -0.3585   23.7904 C   0  0  0  0  0  0
    6.3437    0.1405   22.5577 N   0  0  0  0  0  0
    6.3719   -0.6606   21.4453 C   0  0  0  0  0  0
    6.7638   -1.8257   21.5014 O   0  0  0  0  0  0
    5.9849   -0.1961   20.0799 C   0  0  0  0  0  0
    5.1793    0.7835   19.5496 C   0  0  0  0  0  0
    5.2430    0.6672   18.1373 C   0  0  0  0  0  0
    5.9750   -0.4500   17.8892 C   0  0  0  0  0  0
    6.4470   -0.9638   19.0475 O   0  0  0  0  0  0
    5.8886    1.5674   22.5346 C   0  0  2  0  0  0
    6.6504    2.6332   23.3753 C   0  0  0  0  0  0
    6.1913    3.0374   24.4437 O   0  0  0  0  0  0
    7.7849    3.1371   22.8670 N   0  0  0  0  0  0
    8.3760    4.4211   23.2579 C   0  0  0  0  0  0
    9.5302    4.3053   24.2660 C   0  0  0  0  0  0
   10.6434    3.4044   23.7681 C   0  0  0  0  0  0
   11.7791    3.9270   23.1146 C   0  0  0  0  0  0
   12.7712    3.0555   22.6155 C   0  0  0  0  0  0
   12.6093    1.6615   22.7454 C   0  0  0  0  0  0
   11.4565    1.1514   23.3741 C   0  0  0  0  0  0
   11.1807   -0.1651   23.3721 F   0  0  0  0  0  0
   10.5082    2.0170   23.9316 C   0  0  0  0  0  0
    4.4152    1.6834   22.8682 C   0  0  0  0  0  0
    3.7721    0.9035   23.8551 C   0  0  0  0  0  0
    2.4054    1.0677   24.1412 C   0  0  0  0  0  0
    1.6845    2.0111   23.3935 C   0  0  0  0  0  0
    2.2523    2.7650   22.4358 N   0  0  0  0  0  0
    3.5744    2.6108   22.2038 C   0  0  0  0  0  0
    8.6690   -2.6693   25.4094 C   0  0  0  0  0  0
    8.8054   -4.1254   24.8743 C   0  0  0  0  0  0
    8.4541   -4.2438   23.3738 C   0  0  0  0  0  0
   10.2762   -4.5638   25.0226 C   0  0  0  0  0  0
    7.9311   -5.0783   25.7208 C   0  0  0  0  0  0
    6.0789   -5.6992   27.7278 H   0  0  0  0  0  0
    5.6698   -6.5928   26.2693 H   0  0  0  0  0  0
    4.6256   -5.2852   26.8192 H   0  0  0  0  0  0
    6.0028   -4.5606   24.8997 H   0  0  0  0  0  0
    5.4093   -2.8626   26.6331 H   0  0  0  0  0  0
    6.8686   -3.2428   27.5015 H   0  0  0  0  0  0
    7.3284   -1.2752   26.3213 H   0  0  0  0  0  0
    6.3734   -2.4682   23.7304 H   0  0  0  0  0  0
    5.4247   -1.4875   24.7441 H   0  0  0  0  0  0
    7.0368    0.3946   24.5713 H   0  0  0  0  0  0
    8.0711   -0.5094   23.5322 H   0  0  0  0  0  0
    4.6106    1.5277   20.0766 H   0  0  0  0  0  0
    4.7727    1.2898   17.3920 H   0  0  0  0  0  0
    6.2349   -0.9993   16.9953 H   0  0  0  0  0  0
    6.0654    1.9762   21.5458 H   0  0  0  0  0  0
    8.1345    2.7323   22.0072 H   0  0  0  0  0  0
    8.7607    4.8902   22.3524 H   0  0  0  0  0  0
    7.6060    5.0943   23.6394 H   0  0  0  0  0  0
    9.9357    5.2948   24.4783 H   0  0  0  0  0  0
    9.1542    3.9180   25.2151 H   0  0  0  0  0  0
   11.8863    4.9939   22.9815 H   0  0  0  0  0  0
   13.6416    3.4508   22.1123 H   0  0  0  0  0  0
   13.3391    0.9885   22.3177 H   0  0  0  0  0  0
    9.6274    1.6075   24.4054 H   0  0  0  0  0  0
    4.3274    0.1990   24.4400 H   0  0  0  0  0  0
    1.9212    0.4811   24.9084 H   0  0  0  0  0  0
    0.6305    2.1662   23.5698 H   0  0  0  0  0  0
    3.9670    3.2354   21.4220 H   0  0  0  0  0  0
    9.2213   -1.9778   24.7739 H   0  0  0  0  0  0
    9.1748   -2.6295   26.3742 H   0  0  0  0  0  0
    8.7750   -5.2048   22.9721 H   0  0  0  0  0  0
    8.9417   -3.4660   22.7863 H   0  0  0  0  0  0
    7.3893   -4.1904   23.1688 H   0  0  0  0  0  0
   10.4216   -5.5795   24.6511 H   0  0  0  0  0  0
   10.6000   -4.5624   26.0640 H   0  0  0  0  0  0
   10.9475   -3.9102   24.4635 H   0  0  0  0  0  0
    8.3698   -5.1826   26.7147 H   0  0  0  0  0  0
    7.9536   -6.0805   25.2889 H   0  0  0  0  0  0
  1  2  1  0  0  0
  1 39  1  0  0  0
  1 40  1  0  0  0
  1 41  1  0  0  0
  2  3  1  0  0  0
  2 38  1  0  0  0
  2 42  1  0  0  0
  3  4  1  0  0  0
  3 43  1  0  0  0
  3 44  1  0  0  0
  4  5  1  0  0  0
  4 34  1  0  0  0
  4 45  1  0  0  0
  5  6  1  0  0  0
  5 46  1  0  0  0
  5 47  1  0  0  0
  6  7  1  0  0  0
  6 48  1  0  0  0
  6 49  1  0  0  0
  7  8  1  0  0  0
  7 15  1  0  0  0
  8  9  2  0  0  0
  8 10  1  0  0  0
 10 11  2  0  0  0
 10 14  1  0  0  0
 11 12  1  0  0  0
 11 50  1  0  0  0
 12 13  2  0  0  0
 12 51  1  0  0  0
 13 14  1  0  0  0
 13 52  1  0  0  0
 15 16  1  0  0  0
 15 28  1  0  0  0
 15 53  1  0  0  0
 16 17  2  0  0  0
 16 18  1  0  0  0
 18 19  1  0  0  0
 18 54  1  0  0  0
 19 20  1  0  0  0
 19 55  1  0  0  0
 19 56  1  0  0  0
 20 21  1  0  0  0
 20 57  1  0  0  0
 20 58  1  0  0  0
 21 22  2  0  0  0
 21 27  1  0  0  0
 22 23  1  0  0  0
 22 59  1  0  0  0
 23 24  2  0  0  0
 23 60  1  0  0  0
 24 25  1  0  0  0
 24 61  1  0  0  0
 25 26  1  0  0  0
 25 27  2  0  0  0
 27 62  1  0  0  0
 28 29  2  0  0  0
 28 33  1  0  0  0
 29 30  1  0  0  0
 29 63  1  0  0  0
 30 31  2  0  0  0
 30 64  1  0  0  0
 31 32  1  0  0  0
 31 65  1  0  0  0
 32 33  2  0  0  0
 33 66  1  0  0  0
 34 35  1  0  0  0
 34 67  1  0  0  0
 34 68  1  0  0  0
 35 36  1  0  0  0
 35 37  1  0  0  0
 35 38  1  0  0  0
 36 69  1  0  0  0
 36 70  1  0  0  0
 36 71  1  0  0  0
 37 72  1  0  0  0
 37 73  1  0  0  0
 37 74  1  0  0  0
 38 75  1  0  0  0
 38 76  1  0  0  0
M  END
> <s_m_entry_id>
728

> <s_m_entry_name>
Compounds-withfrags-for-validation-docking.1870

> <s_m_Source_Path>
/home/rodolpho/data/melina/maestro/glide-dock_XP_5RGK_M-PRO_VALIDATION

> <s_m_Source_File>
glide-dock_XP_5RGK_M-PRO_VALIDATION_pv.maegz

> <i_m_Source_File_Index>
728

> <CID>
ALP-POS-b0bc6a46-1

> <Potency>
99.5

> <pIC50>
4.00218

> <Source>
Postera

> <smiles>
CC1CC(CCN(C(=O)c2ccco2)C(C(=O)NCCc2cccc(F)c2)c2cccnc2)CC(C)(C)C1

> <Outcome>
Inactive

> <StandardizerResult>
Clear Stereo (ID: ClearStereo)
Wedge Clean (ID: WedgeClean)
Mesomerize (ID: Mesomerize)
Tautomerize (ID: Tautomerize)
Aromatize (ID: Aromatize)
Add Explicit Hydrogens (ID: AddExplicitH)
Neutralize (ID: Neutralize)
Clean 2D (ID: Clean2D)

> <chiral flag>
0

> <version>
0

> <i_lp_mmshare_version>
41011

> <i_f3d_flags>
0

> <s_epik_input>
W0NIM11bQ0BIXShbQ0gyXTEpW0NIMl1bQ0BASF0oW0NIMl1DMShbQ0gzXSlbQ0gzXSlbQ0gyXVtDSDJdTihDKD1PKWMyW2NIXVtjSF1bY0hdbzIpW0NAQEhdKGMzW2NIXVtjSF1bY0hdbltjSF0zKUMoPU8pW05IXVtDSDJdW0NIMl1jNFtjSF1bY0hdW2NIXWMoRilbY0hdNA==

> <s_epik_cmdline>
J2VwaWtfcHl0aG9uJywgJy1waHQnLCAnMC41JywgJy1waCcsICc3LjQnLCAnLXRuJywgJzgnLCAnLW1hJywgJzIwMCcsICctaW1hZScsICc8aW5maWxlLm1hZT4nLCAnLW9tYWUnLCAnPG91dGZpbGUubWFlPic=

> <r_lp_tautomer_probability>
1.0

> <r_epik_Ionization_Penalty>
8.0E-4

> <r_epik_Ionization_Penalty_Charging>
0.0

> <r_epik_Ionization_Penalty_Neutral>
8.0E-4

> <r_epik_State_Penalty>
0.0

> <r_epik_Charging_Adjusted_Penalty>
0.0

> <i_epik_Tot_Q>
0

> <i_epik_Tot_abs_Q>
0

> <s_lp_Force_Field>
OPLS3

> <r_lp_Energy>
54.9249

> <b_lp_Chiralities_Consistent>
1

> <s_lp_Variant>
ligprep_COVID_compounds-withfrags-smallmolecules-forvalidation.maegz:47-8

> <i_glide_original_lignum>
212

> <s_i_glide_gridfile>
glide-grid_5RGK_M-PRO_COVID

> <i_i_glide_lignum>
212

> <r_i_docking_score>
-4.79260569674524

> <r_i_glide_ligand_efficiency>
-0.126121202545927

> <r_i_glide_ligand_efficiency_sa>
-0.424016380721186

> <r_i_glide_ligand_efficiency_ln>
-1.03342677239402

> <r_glide_XP_GScore>
-4.79260569674524

> <r_i_glide_gscore>
-4.79260569674524

> <r_i_glide_evdw>
-43.0017166137695

> <r_i_glide_ecoul>
-5.80024862289429

> <r_i_glide_energy>
-48.8019652366638

> <r_i_glide_einternal>
10.3484354019165

> <r_i_glide_emodel>
-55.8731995380401

> <r_glide_XP_HBond>
-0.228581588141924

> <i_i_glide_confnum>
2

> <i_i_glide_posenum>
2

> <r_i_glide_eff_state_penalty>
0.0

> <i_glide_XP_PoseRank>
1

> <MW>
519.29

> <cLogP>
6.21

> <TPSA>
75.44

> <Rotatable Bonds>
10

> <Fraction sp3>
0.45

> <HBA>
4

> <HBD>
1

> <s_epik_Chemistry_Notes>


> <Structure ID>


> <Submission Fragments>


$$$$
ligprep_COVID_compounds-withfrags-smallmolecules-forvalidation.maegz:1
                    3D
 Structure written by MMmdl.
 43 45  0  0  1  0            999 V2000
    6.3943    4.2083   24.5612 C   0  0  0  0  0  0
    7.5165    3.3171   24.0138 C   0  0  0  0  0  0
    8.4715    4.0697   23.0784 C   0  0  0  0  0  0
    6.9792    2.1285   23.3707 N   0  0  0  0  0  0
    7.2296    0.7843   23.6168 C   0  0  0  0  0  0
    8.0495    0.3756   24.5854 N   0  0  0  0  0  0
    7.9886   -0.9959   24.4711 C   0  0  0  0  0  0
    8.6093   -2.0084   25.2328 C   0  0  0  0  0  0
    8.4897   -3.3652   24.8641 C   0  0  0  0  0  0
    7.7284   -3.7213   23.7263 C   0  0  0  0  0  0
    7.0676   -2.7254   22.9847 C   0  0  0  0  0  0
    7.1748   -1.3756   23.3712 C   0  0  0  0  0  0
    6.6438   -0.1939   22.8796 N   0  0  0  0  0  0
    5.6495   -0.1499   21.7644 C   0  0  2  0  0  0
    6.2985    0.1803   20.4271 C   0  0  1  0  0  0
    6.7745   -0.9641   19.7688 O   0  0  0  0  0  0
    5.0799    0.7106   19.7012 C   0  0  2  0  0  0
    5.4709    1.4413   18.5581 O   0  0  0  0  0  0
    4.4778    1.5800   20.8139 C   0  0  1  0  0  0
    2.9949    1.9316   20.6611 C   0  0  0  0  0  0
    2.7748    2.6363   19.4594 O   0  0  0  0  0  0
    4.6937    0.8354   22.0126 O   0  0  0  0  0  0
    7.5770   -5.3638   23.2218 Cl  0  0  0  0  0  0
    9.2951   -4.5660   25.8116 Cl  0  0  0  0  0  0
    6.8028    5.0762   25.0774 H   0  0  0  0  0  0
    5.7777    3.6654   25.2777 H   0  0  0  0  0  0
    5.7404    4.5700   23.7704 H   0  0  0  0  0  0
    8.1060    2.9868   24.8703 H   0  0  0  0  0  0
    8.8896    4.9502   23.5662 H   0  0  0  0  0  0
    7.9748    4.4035   22.1707 H   0  0  0  0  0  0
    9.3035    3.4363   22.7768 H   0  0  0  0  0  0
    6.3369    2.3333   22.6159 H   0  0  0  0  0  0
    9.1751   -1.7296   26.1056 H   0  0  0  0  0  0
    6.4752   -3.0031   22.1249 H   0  0  0  0  0  0
    5.1583   -1.1218   21.7715 H   0  0  0  0  0  0
    7.0709    0.9431   20.5499 H   0  0  0  0  0  0
    7.5341   -1.2827   20.2379 H   0  0  0  0  0  0
    4.3886   -0.0882   19.4234 H   0  0  0  0  0  0
    5.0084    2.2735   18.5655 H   0  0  0  0  0  0
    5.0580    2.4887   20.9181 H   0  0  0  0  0  0
    2.3784    1.0365   20.6714 H   0  0  0  0  0  0
    2.6739    2.5525   21.4978 H   0  0  0  0  0  0
    3.3815    3.3794   19.4228 H   0  0  0  0  0  0
  1  2  1  0  0  0
  1 25  1  0  0  0
  1 26  1  0  0  0
  1 27  1  0  0  0
  2  3  1  0  0  0
  2  4  1  0  0  0
  2 28  1  0  0  0
  3 29  1  0  0  0
  3 30  1  0  0  0
  3 31  1  0  0  0
  4  5  1  0  0  0
  4 32  1  0  0  0
  5  6  2  0  0  0
  5 13  1  0  0  0
  6  7  1  0  0  0
  7  8  2  0  0  0
  7 12  1  0  0  0
  8  9  1  0  0  0
  8 33  1  0  0  0
  9 10  2  0  0  0
  9 24  1  0  0  0
 10 11  1  0  0  0
 10 23  1  0  0  0
 11 12  2  0  0  0
 11 34  1  0  0  0
 12 13  1  0  0  0
 13 14  1  0  0  0
 14 15  1  0  0  0
 14 22  1  0  0  0
 14 35  1  0  0  0
 15 16  1  0  0  0
 15 17  1  0  0  0
 15 36  1  0  0  0
 16 37  1  0  0  0
 17 18  1  0  0  0
 17 19  1  0  0  0
 17 38  1  0  0  0
 18 39  1  0  0  0
 19 20  1  0  0  0
 19 22  1  0  0  0
 19 40  1  0  0  0
 20 21  1  0  0  0
 20 41  1  0  0  0
 20 42  1  0  0  0
 21 43  1  0  0  0
M  END
> <s_m_entry_id>
743

> <s_m_entry_name>
Compounds-withfrags-for-validation-docking.1916

> <s_m_Source_Path>
/home/rodolpho/data/melina/maestro/glide-dock_XP_5RGK_M-PRO_VALIDATION

> <s_m_Source_File>
glide-dock_XP_5RGK_M-PRO_VALIDATION_pv.maegz

> <i_m_Source_File_Index>
743

> <CID>
Maribavir

> <pIC50>
4.30103

> <Source>
https://doi.org/10.1101/2020.03.23.004580

> <smiles>
C(C(C([H])([H])[H])(N(C1=NC2=C(C(=C(C([H])=C2N1C1(C(O[H])([H])C(O[H])([H])C(C(O[H])([H])[H])([H])O1)[H])Cl)Cl)[H])[H])[H])([H])([H])[H]

> <Outcome>
Inactive

> <StandardizerResult>
Clear Stereo (ID: ClearStereo)
Wedge Clean (ID: WedgeClean)
Mesomerize (ID: Mesomerize)
Tautomerize (ID: Tautomerize)
Aromatize (ID: Aromatize)
Add Explicit Hydrogens (ID: AddExplicitH)
Neutralize (ID: Neutralize)
Clean 2D (ID: Clean2D)

> <chiral flag>
0

> <version>
0

> <i_lp_mmshare_version>
41011

> <i_f3d_flags>
0

> <s_epik_input>
W2NIXTFjKENsKWMoQ2wpW2NIXWMoYzEyKW4oYyhuMilbTkhdW0NIXShbQ0gzXSlbQ0gzXSlbQ0BASF0zW0NAQEhdKFtPSF0pW0NASF0oW09IXSlbQ0BIXShPMylbQ0gyXVtPSF0=

> <s_epik_cmdline>
J2VwaWtfcHl0aG9uJywgJy1waHQnLCAnMC41JywgJy1waCcsICc3LjQnLCAnLXRuJywgJzgnLCAnLW1hJywgJzIwMCcsICctaW1hZScsICc8aW5maWxlLm1hZT4nLCAnLW9tYWUnLCAnPG91dGZpbGUubWFlPic=

> <r_epik_Ionization_Penalty>
0.01

> <r_epik_Ionization_Penalty_Charging>
0.0

> <r_epik_Ionization_Penalty_Neutral>
0.01

> <r_epik_State_Penalty>
0.0076

> <r_epik_Charging_Adjusted_Penalty>
0.00760364

> <i_epik_Tot_Q>
0

> <i_epik_Tot_abs_Q>
0

> <s_lp_Force_Field>
OPLS3

> <r_lp_Energy>
15.1831

> <b_lp_Chiralities_Consistent>
1

> <s_lp_Variant>
ligprep_COVID_compounds-withfrags-smallmolecules-forvalidation.maegz:1-8

> <i_glide_original_lignum>
8

> <s_i_glide_gridfile>
glide-grid_5RGK_M-PRO_COVID

> <i_i_glide_lignum>
8

> <r_i_docking_score>
-4.78331837105903

> <r_i_glide_ligand_efficiency>
-0.19930493212746

> <r_i_glide_ligand_efficiency_sa>
-0.574894904832936

> <r_i_glide_ligand_efficiency_ln>
-1.14486757837217

> <r_glide_XP_GScore>
-4.79092201105903

> <r_i_glide_gscore>
-4.79092201105903

> <r_i_glide_evdw>
-30.9323348999023

> <r_i_glide_ecoul>
-10.8201351165771

> <r_i_glide_energy>
-41.7524700164795

> <r_i_glide_einternal>
3.53211164474487

> <r_i_glide_emodel>
-47.3280758884793

> <r_glide_XP_HBond>
-1.56418203976505

> <i_i_glide_confnum>
1

> <i_i_glide_posenum>
24

> <r_i_glide_eff_state_penalty>
0.00760364

> <i_glide_XP_PoseRank>
1

> <s_epik_Chemistry_Notes>
This compound contains an acetal/aminal-like group ( X-CH(R)-Y where X, Y are N, S, or O) that may be acid/base labile, releasing an aldehyde.

> <Potency>
50.0

> <r_lp_tautomer_probability>


> <MW>


> <cLogP>


> <TPSA>


> <Rotatable Bonds>


> <Fraction sp3>


> <HBA>


> <HBD>


> <Structure ID>


> <Submission Fragments>


$$$$
ligprep_COVID_compounds-withfrags-smallmolecules-forvalidation.maegz:27
                    3D
 Structure written by MMmdl.
 70 74  0  0  1  0            999 V2000
    8.3748    1.6936   25.5202 O   0  0  0  0  0  0
    8.0656    1.6278   24.3306 C   0  0  0  0  0  0
    8.0050    2.7027   23.5219 N   0  0  0  0  0  0
    8.2210    4.1028   23.8734 C   0  0  0  0  0  0
    9.5744    4.3963   24.5565 C   0  0  0  0  0  0
   10.8232    3.9963   23.7704 C   0  0  0  0  0  0
   11.2575    2.6516   23.7078 C   0  0  0  0  0  0
   12.4100    2.3053   22.9761 C   0  0  0  0  0  0
   13.1627    3.3068   22.3345 C   0  0  0  0  0  0
   12.7633    4.6534   22.4223 C   0  0  0  0  0  0
   13.5024    5.6156   21.8208 F   0  0  0  0  0  0
   11.5962    4.9936   23.1367 C   0  0  0  0  0  0
    7.8788    0.2608   23.6429 C   0  0  2  0  0  0
    6.6348    0.3434   22.7637 C   0  0  0  0  0  0
    6.6734   -0.0791   21.4145 C   0  0  0  0  0  0
    5.5573    0.0680   20.5738 C   0  0  0  0  0  0
    4.3961    0.6415   21.1111 C   0  0  0  0  0  0
    4.3036    1.0368   22.3920 N   0  0  0  0  0  0
    5.3949    0.9041   23.1694 C   0  0  0  0  0  0
    7.9638   -0.9417   24.5424 N   0  0  0  0  0  0
    9.1400   -1.6334   24.5755 C   0  0  0  0  0  0
   10.1782   -1.1062   24.1709 O   0  0  0  0  0  0
    9.2675   -3.0673   24.9957 C   0  0  0  0  0  0
    8.6919   -3.9196   25.9187 C   0  0  0  0  0  0
    9.3936   -5.1486   25.8852 C   0  0  0  0  0  0
   10.3765   -4.9640   24.9707 C   0  0  0  0  0  0
   10.3207   -3.7240   24.4347 O   0  0  0  0  0  0
    6.7519   -1.3340   25.2714 C   0  0  0  0  0  0
    6.0829   -2.5813   24.6698 C   0  0  0  0  0  0
    4.7758   -2.8917   25.4042 C   0  0  0  0  0  0
    5.0205   -2.9681   26.8436 N   0  0  0  0  0  0
    4.0831   -3.6623   27.6265 C   0  0  0  0  0  0
    4.5276   -4.3549   28.7740 C   0  0  0  0  0  0
    3.6165   -5.0683   29.5771 C   0  0  0  0  0  0
    2.2498   -5.0909   29.2416 C   0  0  0  0  0  0
    1.7956   -4.3939   28.1055 C   0  0  0  0  0  0
    2.7072   -3.6834   27.3012 C   0  0  0  0  0  0
    5.5284   -1.7408   27.4522 C   0  0  0  0  0  0
    6.8760   -1.3270   26.8199 C   0  0  0  0  0  0
    7.7891    2.5242   22.5488 H   0  0  0  0  0  0
    8.1429    4.6874   22.9561 H   0  0  0  0  0  0
    7.4025    4.4283   24.5149 H   0  0  0  0  0  0
    9.6267    5.4618   24.7792 H   0  0  0  0  0  0
    9.5749    3.9082   25.5273 H   0  0  0  0  0  0
   10.7226    1.8717   24.2236 H   0  0  0  0  0  0
   12.7292    1.2749   22.9244 H   0  0  0  0  0  0
   14.0528    3.0411   21.7849 H   0  0  0  0  0  0
   11.2912    6.0264   23.1974 H   0  0  0  0  0  0
    8.7262    0.2476   22.9707 H   0  0  0  0  0  0
    7.5743   -0.4849   20.9896 H   0  0  0  0  0  0
    5.5942   -0.2433   19.5405 H   0  0  0  0  0  0
    3.5162    0.7747   20.5009 H   0  0  0  0  0  0
    5.2722    1.2885   24.1690 H   0  0  0  0  0  0
    7.8386   -3.7639   26.5504 H   0  0  0  0  0  0
    9.2072   -6.0461   26.4576 H   0  0  0  0  0  0
   11.1742   -5.5788   24.5896 H   0  0  0  0  0  0
    6.0167   -0.5642   25.0956 H   0  0  0  0  0  0
    5.9750   -2.3977   23.6037 H   0  0  0  0  0  0
    6.6752   -3.4824   24.6847 H   0  0  0  0  0  0
    4.0386   -2.1132   25.2007 H   0  0  0  0  0  0
    4.3752   -3.8371   25.0395 H   0  0  0  0  0  0
    5.5754   -4.3522   29.0340 H   0  0  0  0  0  0
    3.9703   -5.5983   30.4493 H   0  0  0  0  0  0
    1.5516   -5.6375   29.8571 H   0  0  0  0  0  0
    0.7460   -4.4035   27.8515 H   0  0  0  0  0  0
    2.3339   -3.1437   26.4440 H   0  0  0  0  0  0
    4.7869   -0.9638   27.2708 H   0  0  0  0  0  0
    5.5998   -1.8288   28.5360 H   0  0  0  0  0  0
    7.6810   -1.9287   27.2195 H   0  0  0  0  0  0
    7.1735   -0.3315   27.1545 H   0  0  0  0  0  0
  1  2  2  0  0  0
  2  3  1  0  0  0
  2 13  1  0  0  0
  3  4  1  0  0  0
  3 40  1  0  0  0
  4  5  1  0  0  0
  4 41  1  0  0  0
  4 42  1  0  0  0
  5  6  1  0  0  0
  5 43  1  0  0  0
  5 44  1  0  0  0
  6  7  2  0  0  0
  6 12  1  0  0  0
  7  8  1  0  0  0
  7 45  1  0  0  0
  8  9  2  0  0  0
  8 46  1  0  0  0
  9 10  1  0  0  0
  9 47  1  0  0  0
 10 11  1  0  0  0
 10 12  2  0  0  0
 12 48  1  0  0  0
 13 14  1  0  0  0
 13 20  1  0  0  0
 13 49  1  0  0  0
 14 15  2  0  0  0
 14 19  1  0  0  0
 15 16  1  0  0  0
 15 50  1  0  0  0
 16 17  2  0  0  0
 16 51  1  0  0  0
 17 18  1  0  0  0
 17 52  1  0  0  0
 18 19  2  0  0  0
 19 53  1  0  0  0
 20 21  1  0  0  0
 20 28  1  0  0  0
 21 22  2  0  0  0
 21 23  1  0  0  0
 23 24  2  0  0  0
 23 27  1  0  0  0
 24 25  1  0  0  0
 24 54  1  0  0  0
 25 26  2  0  0  0
 25 55  1  0  0  0
 26 27  1  0  0  0
 26 56  1  0  0  0
 28 29  1  0  0  0
 28 39  1  0  0  0
 28 57  1  0  0  0
 29 30  1  0  0  0
 29 58  1  0  0  0
 29 59  1  0  0  0
 30 31  1  0  0  0
 30 60  1  0  0  0
 30 61  1  0  0  0
 31 32  1  0  0  0
 31 38  1  0  0  0
 32 33  2  0  0  0
 32 37  1  0  0  0
 33 34  1  0  0  0
 33 62  1  0  0  0
 34 35  2  0  0  0
 34 63  1  0  0  0
 35 36  1  0  0  0
 35 64  1  0  0  0
 36 37  2  0  0  0
 36 65  1  0  0  0
 37 66  1  0  0  0
 38 39  1  0  0  0
 38 67  1  0  0  0
 38 68  1  0  0  0
 39 69  1  0  0  0
 39 70  1  0  0  0
M  END
> <s_m_entry_id>
750

> <s_m_entry_name>
Compounds-withfrags-for-validation-docking.1890

> <s_m_Source_Path>
/home/rodolpho/data/melina/maestro/glide-dock_XP_5RGK_M-PRO_VALIDATION

> <s_m_Source_File>
glide-dock_XP_5RGK_M-PRO_VALIDATION_pv.maegz

> <i_m_Source_File_Index>
750

> <CID>
ALP-POS-b0bc6a46-28

> <Potency>
79.6128

> <pIC50>
4.09902

> <Source>
Postera

> <smiles>
O=C(NCCc1cccc(F)c1)C(c1cccnc1)N(C(=O)c1ccco1)C1CCN(c2ccccc2)CC1

> <Outcome>
Inactive

> <StandardizerResult>
Clear Stereo (ID: ClearStereo)
Wedge Clean (ID: WedgeClean)
Mesomerize (ID: Mesomerize)
Tautomerize (ID: Tautomerize)
Aromatize (ID: Aromatize)
Add Explicit Hydrogens (ID: AddExplicitH)
Neutralize (ID: Neutralize)
Clean 2D (ID: Clean2D)

> <chiral flag>
0

> <version>
0

> <i_lp_mmshare_version>
41011

> <i_f3d_flags>
0

> <s_epik_input>
RmMoW2NIXTEpW2NIXVtjSF1bY0hdYzFbQ0gyXVtDSDJdW05IXUMoPU8pW0NASF0oYzJbY0hdW2NIXVtjSF1uW2NIXTIpTihDKD1PKWMzW2NIXVtjSF1bY0hdbzMpW0NIXTRbQ0gyXVtDSDJdTihbQ0gyXVtDSDJdNCljNVtjSF1bY0hdW2NIXVtjSF1bY0hdNQ==

> <s_epik_cmdline>
J2VwaWtfcHl0aG9uJywgJy1waHQnLCAnMC41JywgJy1waCcsICc3LjQnLCAnLXRuJywgJzgnLCAnLW1hJywgJzIwMCcsICctaW1hZScsICc8aW5maWxlLm1hZT4nLCAnLW9tYWUnLCAnPG91dGZpbGUubWFlPic=

> <r_lp_tautomer_probability>
1.0

> <r_epik_Ionization_Penalty>
0.0042

> <r_epik_Ionization_Penalty_Charging>
0.0

> <r_epik_Ionization_Penalty_Neutral>
0.0042

> <r_epik_State_Penalty>
0.0

> <r_epik_Charging_Adjusted_Penalty>
0.0

> <i_epik_Tot_Q>
0

> <i_epik_Tot_abs_Q>
0

> <s_lp_Force_Field>
OPLS3

> <r_lp_Energy>
68.3224

> <b_lp_Chiralities_Consistent>
1

> <s_lp_Variant>
ligprep_COVID_compounds-withfrags-smallmolecules-forvalidation.maegz:27-2

> <i_glide_original_lignum>
150

> <s_i_glide_gridfile>
glide-grid_5RGK_M-PRO_COVID

> <i_i_glide_lignum>
150

> <r_i_docking_score>
-4.77097956857019

> <r_i_glide_ligand_efficiency>
-0.122332809450518

> <r_i_glide_ligand_efficiency_sa>
-0.41485642275805

> <r_i_glide_ligand_efficiency_ln>
-1.02303345181031

> <r_glide_XP_GScore>
-4.77097956857019

> <r_i_glide_gscore>
-4.77097956857019

> <r_i_glide_evdw>
-36.4860725402832

> <r_i_glide_ecoul>
-8.2817211151123

> <r_i_glide_energy>
-44.7677936553955

> <r_i_glide_einternal>
10.0283517837524

> <r_i_glide_emodel>
-50.656461704593

> <r_glide_XP_HBond>
-0.700343008969734

> <i_i_glide_confnum>
3

> <i_i_glide_posenum>
7

> <r_i_glide_eff_state_penalty>
0.0

> <i_glide_XP_PoseRank>
1

> <MW>
526.24

> <cLogP>
5.03

> <TPSA>
78.68

> <Rotatable Bonds>
9

> <Fraction sp3>
0.26

> <HBA>
5

> <HBD>
1

> <s_epik_Chemistry_Notes>


> <Structure ID>


> <Submission Fragments>


$$$$
ligprep_COVID_compounds-withfrags-smallmolecules-forvalidation.maegz:51
                    3D
 Structure written by MMmdl.
 36 38  0  0  1  0            999 V2000
    6.1345   -6.4933   30.2451 C   0  0  0  0  0  0
    5.5617   -5.3588   29.6142 O   0  0  0  0  0  0
    6.0725   -4.9713   28.3949 C   0  0  0  0  0  0
    5.4468   -3.8809   27.7600 C   0  0  0  0  0  0
    5.8848   -3.4294   26.5019 C   0  0  0  0  0  0
    6.9541   -4.0888   25.8536 C   0  0  0  0  0  0
    7.6180   -5.1778   26.4853 C   0  0  0  0  0  0
    7.1684   -5.6036   27.7551 C   0  0  0  0  0  0
    8.6314   -5.5619   25.5677 C   0  0  0  0  0  0
    9.5749   -6.5559   25.7707 N   0  0  0  0  0  0
    8.5925   -4.8791   24.4650 N   0  0  0  0  0  0
    7.5939   -3.9619   24.6091 N   0  0  0  0  0  0
    7.3865   -3.0681   23.5023 C   0  0  0  0  0  0
    7.9198   -3.3637   22.4316 O   0  0  0  0  0  0
    6.5564   -1.7943   23.7128 C   0  0  0  0  0  0
    6.3757   -0.8615   22.5179 C   0  0  0  0  0  0
    6.3185    0.5228   22.7784 C   0  0  0  0  0  0
    6.1109    1.4357   21.7331 C   0  0  0  0  0  0
    5.9744    0.9820   20.4088 C   0  0  0  0  0  0
    6.0537   -0.3933   20.1324 C   0  0  0  0  0  0
    5.9748   -0.9462   18.5010 Cl  0  0  0  0  0  0
    6.2175   -1.3138   21.1845 C   0  0  0  0  0  0
    5.5931   -6.7046   31.1676 H   0  0  0  0  0  0
    7.1740   -6.3044   30.5122 H   0  0  0  0  0  0
    6.0753   -7.3835   29.6170 H   0  0  0  0  0  0
    4.6184   -3.3874   28.2478 H   0  0  0  0  0  0
    5.3674   -2.5954   26.0601 H   0  0  0  0  0  0
    7.6768   -6.4516   28.1924 H   0  0  0  0  0  0
    9.6806   -6.9861   26.6904 H   0  0  0  0  0  0
   10.3174   -6.7433   25.1053 H   0  0  0  0  0  0
    5.5752   -2.0641   24.0693 H   0  0  0  0  0  0
    7.0299   -1.2399   24.5236 H   0  0  0  0  0  0
    6.4277    0.8943   23.7866 H   0  0  0  0  0  0
    6.0710    2.4894   21.9531 H   0  0  0  0  0  0
    5.8260    1.6953   19.6121 H   0  0  0  0  0  0
    6.2367   -2.3665   20.9419 H   0  0  0  0  0  0
  1  2  1  0  0  0
  1 23  1  0  0  0
  1 24  1  0  0  0
  1 25  1  0  0  0
  2  3  1  0  0  0
  3  4  1  0  0  0
  3  8  2  0  0  0
  4  5  2  0  0  0
  4 26  1  0  0  0
  5  6  1  0  0  0
  5 27  1  0  0  0
  6  7  2  0  0  0
  6 12  1  0  0  0
  7  8  1  0  0  0
  7  9  1  0  0  0
  8 28  1  0  0  0
  9 10  1  0  0  0
  9 11  2  0  0  0
 10 29  1  0  0  0
 10 30  1  0  0  0
 11 12  1  0  0  0
 12 13  1  0  0  0
 13 14  2  0  0  0
 13 15  1  0  0  0
 15 16  1  0  0  0
 15 31  1  0  0  0
 15 32  1  0  0  0
 16 17  2  0  0  0
 16 22  1  0  0  0
 17 18  1  0  0  0
 17 33  1  0  0  0
 18 19  2  0  0  0
 18 34  1  0  0  0
 19 20  1  0  0  0
 19 35  1  0  0  0
 20 21  1  0  0  0
 20 22  2  0  0  0
 22 36  1  0  0  0
M  END
> <s_m_entry_id>
754

> <s_m_entry_name>
Compounds-withfrags-for-validation-docking.1866

> <s_m_Source_Path>
/home/rodolpho/data/melina/maestro/glide-dock_XP_5RGK_M-PRO_VALIDATION

> <s_m_Source_File>
glide-dock_XP_5RGK_M-PRO_VALIDATION_pv.maegz

> <i_m_Source_File_Index>
754

> <CID>
MAT-POS-0c8fa4a7-2

> <Potency>
99.5

> <pIC50>
4.00218

> <Source>
Postera

> <smiles>
COc1ccc2c(c1)c(N)nn2C(=O)Cc1cccc(Cl)c1

> <Outcome>
Inactive

> <StandardizerResult>
Clear Stereo (ID: ClearStereo)
Wedge Clean (ID: WedgeClean)
Mesomerize (ID: Mesomerize)
Tautomerize (ID: Tautomerize)
Aromatize (ID: Aromatize)
Add Explicit Hydrogens (ID: AddExplicitH)
Neutralize (ID: Neutralize)
Clean 2D (ID: Clean2D)

> <chiral flag>
0

> <version>
0

> <i_lp_mmshare_version>
41011

> <i_f3d_flags>
0

> <s_epik_input>
W0NIM11PYyhbY0hdW2NIXTEpW2NIXWMoYzEyKWMoW05IMl0pbm4yQyg9TylbQ0gyXWMzW2NIXVtjSF1bY0hdYyhDbClbY0hdMw==

> <s_epik_cmdline>
J2VwaWtfcHl0aG9uJywgJy1waHQnLCAnMC41JywgJy1waCcsICc3LjQnLCAnLXRuJywgJzgnLCAnLW1hJywgJzIwMCcsICctaW1hZScsICc8aW5maWxlLm1hZT4nLCAnLW9tYWUnLCAnPG91dGZpbGUubWFlPic=

> <r_lp_tautomer_probability>
1.0

> <r_epik_Ionization_Penalty>
2.0E-4

> <r_epik_Ionization_Penalty_Charging>
0.0

> <r_epik_Ionization_Penalty_Neutral>
2.0E-4

> <r_epik_State_Penalty>
0.0

> <r_epik_Charging_Adjusted_Penalty>
0.0

> <i_epik_Tot_Q>
0

> <i_epik_Tot_abs_Q>
0

> <s_lp_Force_Field>
OPLS3

> <r_lp_Energy>
26.5487

> <b_lp_Chiralities_Consistent>
1

> <s_lp_Variant>
ligprep_COVID_compounds-withfrags-smallmolecules-forvalidation.maegz:51-1

> <i_glide_original_lignum>
217

> <s_i_glide_gridfile>
glide-grid_5RGK_M-PRO_COVID

> <i_i_glide_lignum>
217

> <r_i_docking_score>
-4.76425478631124

> <r_i_glide_ligand_efficiency>
-0.21655703574142

> <r_i_glide_ligand_efficiency_sa>
-0.606801330852387

> <r_i_glide_ligand_efficiency_ln>
-1.16455765019018

> <r_glide_XP_GScore>
-4.76425478631124

> <r_i_glide_gscore>
-4.76425478631124

> <r_i_glide_evdw>
-27.439001083374

> <r_i_glide_ecoul>
-10.4399862289429

> <r_i_glide_energy>
-37.8789873123169

> <r_i_glide_einternal>
4.39569282531738

> <r_i_glide_emodel>
-51.224133093969

> <r_glide_XP_HBond>
-0.7

> <i_i_glide_confnum>
1

> <i_i_glide_posenum>
14

> <r_i_glide_eff_state_penalty>
0.0

> <i_glide_XP_PoseRank>
1

> <MW>
315.08

> <cLogP>
3.16

> <TPSA>
70.14

> <Rotatable Bonds>
3

> <Fraction sp3>
0.12

> <HBA>
5

> <HBD>
1

> <s_epik_Chemistry_Notes>


> <Structure ID>


> <Submission Fragments>


$$$$
ligprep_COVID_compounds-withfrags-smallmolecules-forvalidation.maegz:1
                    3D
 Structure written by MMmdl.
 43 45  0  0  1  0            999 V2000
    5.0829   -6.3612   22.2384 C   0  0  0  0  0  0
    4.3976   -6.8719   23.5061 C   0  0  0  0  0  0
    2.8707   -6.7860   23.3853 C   0  0  0  0  0  0
    4.9214   -6.1409   24.6426 N   0  0  0  0  0  0
    4.8012   -6.2847   26.0120 C   0  0  0  0  0  0
    3.6795   -6.6554   26.6250 N   0  0  0  0  0  0
    4.0708   -6.6872   27.9482 C   0  0  0  0  0  0
    3.3356   -6.9829   29.1161 C   0  0  0  0  0  0
    3.9609   -6.9637   30.3803 C   0  0  0  0  0  0
    5.3392   -6.6649   30.4885 C   0  0  0  0  0  0
    6.0851   -6.3691   29.3341 C   0  0  0  0  0  0
    5.4489   -6.3549   28.0794 C   0  0  0  0  0  0
    5.8833   -6.0548   26.7975 N   0  0  0  0  0  0
    7.3093   -5.6808   26.4540 C   0  0  2  0  0  0
    7.7725   -4.4252   27.1956 C   0  0  2  0  0  0
    6.7202   -3.4802   27.3661 O   0  0  0  0  0  0
    8.8796   -3.8988   26.2845 C   0  0  2  0  0  0
    8.7747   -2.4899   26.2043 O   0  0  0  0  0  0
    8.6732   -4.6586   24.9535 C   0  0  2  0  0  0
    8.6634   -3.8108   23.6682 C   0  0  0  0  0  0
    9.9665   -3.3397   23.3827 O   0  0  0  0  0  0
    7.4391   -5.3530   25.1069 O   0  0  0  0  0  0
    6.1415   -6.6808   32.0182 Cl  0  0  0  0  0  0
    3.0294   -7.3553   31.7813 Cl  0  0  0  0  0  0
    4.8130   -6.9634   21.3718 H   0  0  0  0  0  0
    6.1694   -6.3923   22.3320 H   0  0  0  0  0  0
    4.7793   -5.3313   22.0517 H   0  0  0  0  0  0
    4.6749   -7.9148   23.6560 H   0  0  0  0  0  0
    2.5176   -7.3989   22.5560 H   0  0  0  0  0  0
    2.5471   -5.7649   23.1920 H   0  0  0  0  0  0
    2.3707   -7.1413   24.2865 H   0  0  0  0  0  0
    5.8276   -5.7295   24.4367 H   0  0  0  0  0  0
    2.2901   -7.2377   29.0332 H   0  0  0  0  0  0
    7.1406   -6.1733   29.4168 H   0  0  0  0  0  0
    7.9073   -6.5632   26.6919 H   0  0  0  0  0  0
    8.1703   -4.6984   28.1703 H   0  0  0  0  0  0
    5.9722   -3.9351   27.7234 H   0  0  0  0  0  0
    9.8601   -4.1555   26.6878 H   0  0  0  0  0  0
    7.8690   -2.2991   26.4254 H   0  0  0  0  0  0
    9.4447   -5.4270   24.8685 H   0  0  0  0  0  0
    8.3302   -4.4185   22.8265 H   0  0  0  0  0  0
    7.9678   -2.9745   23.7462 H   0  0  0  0  0  0
   10.5145   -4.0914   23.1913 H   0  0  0  0  0  0
  1  2  1  0  0  0
  1 25  1  0  0  0
  1 26  1  0  0  0
  1 27  1  0  0  0
  2  3  1  0  0  0
  2  4  1  0  0  0
  2 28  1  0  0  0
  3 29  1  0  0  0
  3 30  1  0  0  0
  3 31  1  0  0  0
  4  5  1  0  0  0
  4 32  1  0  0  0
  5  6  2  0  0  0
  5 13  1  0  0  0
  6  7  1  0  0  0
  7  8  2  0  0  0
  7 12  1  0  0  0
  8  9  1  0  0  0
  8 33  1  0  0  0
  9 10  2  0  0  0
  9 24  1  0  0  0
 10 11  1  0  0  0
 10 23  1  0  0  0
 11 12  2  0  0  0
 11 34  1  0  0  0
 12 13  1  0  0  0
 13 14  1  0  0  0
 14 15  1  0  0  0
 14 22  1  0  0  0
 14 35  1  0  0  0
 15 16  1  0  0  0
 15 17  1  0  0  0
 15 36  1  0  0  0
 16 37  1  0  0  0
 17 18  1  0  0  0
 17 19  1  0  0  0
 17 38  1  0  0  0
 18 39  1  0  0  0
 19 20  1  0  0  0
 19 22  1  0  0  0
 19 40  1  0  0  0
 20 21  1  0  0  0
 20 41  1  0  0  0
 20 42  1  0  0  0
 21 43  1  0  0  0
M  END
> <s_m_entry_id>
767

> <s_m_entry_name>
Compounds-withfrags-for-validation-docking.1916

> <s_m_Source_Path>
/home/rodolpho/data/melina/maestro/glide-dock_XP_5RGK_M-PRO_VALIDATION

> <s_m_Source_File>
glide-dock_XP_5RGK_M-PRO_VALIDATION_pv.maegz

> <i_m_Source_File_Index>
767

> <CID>
Maribavir

> <pIC50>
4.30103

> <Source>
https://doi.org/10.1101/2020.03.23.004580

> <smiles>
C(C(C([H])([H])[H])(N(C1=NC2=C(C(=C(C([H])=C2N1C1(C(O[H])([H])C(O[H])([H])C(C(O[H])([H])[H])([H])O1)[H])Cl)Cl)[H])[H])[H])([H])([H])[H]

> <Outcome>
Inactive

> <StandardizerResult>
Clear Stereo (ID: ClearStereo)
Wedge Clean (ID: WedgeClean)
Mesomerize (ID: Mesomerize)
Tautomerize (ID: Tautomerize)
Aromatize (ID: Aromatize)
Add Explicit Hydrogens (ID: AddExplicitH)
Neutralize (ID: Neutralize)
Clean 2D (ID: Clean2D)

> <chiral flag>
0

> <version>
0

> <i_lp_mmshare_version>
41011

> <i_f3d_flags>
0

> <s_epik_input>
W2NIXTFjKENsKWMoQ2wpW2NIXWMoYzEyKW4oYyhuMilbTkhdW0NIXShbQ0gzXSlbQ0gzXSlbQ0BASF0zW0NASF0oW09IXSlbQ0BIXShbT0hdKVtDQEBIXShPMylbQ0gyXVtPSF0=

> <s_epik_cmdline>
J2VwaWtfcHl0aG9uJywgJy1waHQnLCAnMC41JywgJy1waCcsICc3LjQnLCAnLXRuJywgJzgnLCAnLW1hJywgJzIwMCcsICctaW1hZScsICc8aW5maWxlLm1hZT4nLCAnLW9tYWUnLCAnPG91dGZpbGUubWFlPic=

> <r_epik_Ionization_Penalty>
0.01

> <r_epik_Ionization_Penalty_Charging>
0.0

> <r_epik_Ionization_Penalty_Neutral>
0.01

> <r_epik_State_Penalty>
0.0076

> <r_epik_Charging_Adjusted_Penalty>
0.00760364

> <i_epik_Tot_Q>
0

> <i_epik_Tot_abs_Q>
0

> <s_lp_Force_Field>
OPLS3

> <r_lp_Energy>
17.4308

> <b_lp_Chiralities_Consistent>
1

> <s_lp_Variant>
ligprep_COVID_compounds-withfrags-smallmolecules-forvalidation.maegz:1-14

> <i_glide_original_lignum>
14

> <s_i_glide_gridfile>
glide-grid_5RGK_M-PRO_COVID

> <i_i_glide_lignum>
14

> <r_i_docking_score>
-4.74629810451831

> <r_i_glide_ligand_efficiency>
-0.197762421021596

> <r_i_glide_ligand_efficiency_sa>
-0.570445532878398

> <r_i_glide_ligand_efficiency_ln>
-1.13600692983964

> <r_glide_XP_GScore>
-4.75390174451831

> <r_i_glide_gscore>
-4.75390174451831

> <r_i_glide_evdw>
-27.0583229064941

> <r_i_glide_ecoul>
-11.8282804489136

> <r_i_glide_energy>
-38.8866033554077

> <r_i_glide_einternal>
0.0

> <r_i_glide_emodel>
-47.3575253909106

> <r_glide_XP_HBond>
-2.50347519952569

> <i_i_glide_confnum>
1

> <i_i_glide_posenum>
2

> <r_i_glide_eff_state_penalty>
0.00760364

> <i_glide_XP_PoseRank>
1

> <s_epik_Chemistry_Notes>
This compound contains an acetal/aminal-like group ( X-CH(R)-Y where X, Y are N, S, or O) that may be acid/base labile, releasing an aldehyde.

> <Potency>
50.0

> <r_lp_tautomer_probability>


> <MW>


> <cLogP>


> <TPSA>


> <Rotatable Bonds>


> <Fraction sp3>


> <HBA>


> <HBD>


> <Structure ID>


> <Submission Fragments>


$$$$
ligprep_COVID_compounds-withfrags-smallmolecules-forvalidation.maegz:69
                    3D
 Structure written by MMmdl.
 57 60  0  0  1  0            999 V2000
    2.2336    4.4461   21.8090 C   0  0  0  0  0  0
    3.0240    3.6308   22.8350 C   0  0  0  0  0  0
    3.5745    2.4958   22.1888 O   0  0  0  0  0  0
    4.1404    1.5090   22.8977 C   0  0  0  0  0  0
    3.9746    1.3889   24.1131 O   0  0  0  0  0  0
    4.9615    0.6360   22.0613 C   0  0  0  0  0  0
    5.7983   -0.3730   22.5093 C   0  0  0  0  0  0
    6.1116   -0.8827   23.8838 C   0  0  0  0  0  0
    7.4825   -1.2778   23.9776 O   0  0  0  0  0  0
    7.7190   -2.6198   24.1618 C   0  0  0  0  0  0
    8.6495   -3.0274   25.1441 C   0  0  0  0  0  0
    8.8867   -4.4006   25.3661 C   0  0  0  0  0  0
    9.9749   -4.9555   26.5716 Cl  0  0  0  0  0  0
    8.2212   -5.3634   24.6023 C   0  0  0  0  0  0
    7.3145   -4.9678   23.6078 C   0  0  0  0  0  0
    6.6447   -6.0178   22.7599 C   0  0  0  0  0  0
    5.1479   -6.1388   23.0465 C   0  0  0  0  0  0
    4.3622   -5.8046   22.1707 O   0  0  0  0  0  0
    4.7752   -6.5637   24.2663 N   0  0  0  0  0  0
    3.4774   -6.9071   24.7319 C   0  0  0  0  0  0
    2.4019   -7.2311   23.8667 C   0  0  0  0  0  0
    1.1773   -7.5877   24.3049 N   0  0  0  0  0  0
    0.9755   -7.6507   25.6361 C   0  0  0  0  0  0
    1.9748   -7.3610   26.5830 C   0  0  0  0  0  0
    3.2541   -6.9892   26.1263 C   0  0  0  0  0  0
    4.3597   -6.6965   27.1263 C   0  0  0  0  0  0
    7.0696   -3.6008   23.3821 C   0  0  0  0  0  0
    6.4312   -1.0031   21.4751 O   0  0  0  0  0  0
    6.0750   -0.3436   20.3257 C   0  0  0  0  0  0
    6.5394   -0.5922   19.0279 C   0  0  0  0  0  0
    6.0438    0.1860   17.9736 C   0  0  0  0  0  0
    5.1277    1.2144   18.2328 C   0  0  0  0  0  0
    4.6646    1.4361   19.5432 C   0  0  0  0  0  0
    5.1422    0.6725   20.6332 C   0  0  0  0  0  0
    1.8331    5.3557   22.2572 H   0  0  0  0  0  0
    1.3985    3.8703   21.4103 H   0  0  0  0  0  0
    2.8688    4.7407   20.9731 H   0  0  0  0  0  0
    3.8400    4.2325   23.2455 H   0  0  0  0  0  0
    2.3739    3.3350   23.6592 H   0  0  0  0  0  0
    6.0020   -0.0616   24.5707 H   0  0  0  0  0  0
    5.4092   -1.6541   24.1998 H   0  0  0  0  0  0
    9.1600   -2.2880   25.7423 H   0  0  0  0  0  0
    8.4270   -6.4061   24.7874 H   0  0  0  0  0  0
    6.8155   -5.7635   21.7241 H   0  0  0  0  0  0
    7.1441   -6.9658   22.8929 H   0  0  0  0  0  0
    5.5205   -6.6561   24.9418 H   0  0  0  0  0  0
    2.5082   -7.2352   22.7933 H   0  0  0  0  0  0
   -0.0127   -7.9448   25.9579 H   0  0  0  0  0  0
    1.7629   -7.4420   27.6388 H   0  0  0  0  0  0
    4.0146   -6.8358   28.1511 H   0  0  0  0  0  0
    4.7052   -5.6680   27.0222 H   0  0  0  0  0  0
    5.2081   -7.3635   26.9696 H   0  0  0  0  0  0
    6.3754   -3.3119   22.6062 H   0  0  0  0  0  0
    7.2659   -1.3638   18.8478 H   0  0  0  0  0  0
    6.3621   -0.0037   16.9687 H   0  0  0  0  0  0
    4.7747    1.8387   17.4253 H   0  0  0  0  0  0
    3.9714    2.2451   19.7161 H   0  0  0  0  0  0
  1  2  1  0  0  0
  1 35  1  0  0  0
  1 36  1  0  0  0
  1 37  1  0  0  0
  2  3  1  0  0  0
  2 38  1  0  0  0
  2 39  1  0  0  0
  3  4  1  0  0  0
  4  5  2  0  0  0
  4  6  1  0  0  0
  6  7  2  0  0  0
  6 34  1  0  0  0
  7  8  1  0  0  0
  7 28  1  0  0  0
  8  9  1  0  0  0
  8 40  1  0  0  0
  8 41  1  0  0  0
  9 10  1  0  0  0
 10 11  2  0  0  0
 10 27  1  0  0  0
 11 12  1  0  0  0
 11 42  1  0  0  0
 12 13  1  0  0  0
 12 14  2  0  0  0
 14 15  1  0  0  0
 14 43  1  0  0  0
 15 16  1  0  0  0
 15 27  2  0  0  0
 16 17  1  0  0  0
 16 44  1  0  0  0
 16 45  1  0  0  0
 17 18  2  0  0  0
 17 19  1  0  0  0
 19 20  1  0  0  0
 19 46  1  0  0  0
 20 21  2  0  0  0
 20 25  1  0  0  0
 21 22  1  0  0  0
 21 47  1  0  0  0
 22 23  2  0  0  0
 23 24  1  0  0  0
 23 48  1  0  0  0
 24 25  2  0  0  0
 24 49  1  0  0  0
 25 26  1  0  0  0
 26 50  1  0  0  0
 26 51  1  0  0  0
 26 52  1  0  0  0
 27 53  1  0  0  0
 28 29  1  0  0  0
 29 30  2  0  0  0
 29 34  1  0  0  0
 30 31  1  0  0  0
 30 54  1  0  0  0
 31 32  2  0  0  0
 31 55  1  0  0  0
 32 33  1  0  0  0
 32 56  1  0  0  0
 33 34  2  0  0  0
 33 57  1  0  0  0
M  END
> <s_m_entry_id>
770

> <s_m_entry_name>
Compounds-withfrags-for-validation-docking.1848

> <s_m_Source_Path>
/home/rodolpho/data/melina/maestro/glide-dock_XP_5RGK_M-PRO_VALIDATION

> <s_m_Source_File>
glide-dock_XP_5RGK_M-PRO_VALIDATION_pv.maegz

> <i_m_Source_File_Index>
770

> <CID>
CHO-MSK-6e55470f-17

> <Potency>
99.5

> <pIC50>
4.00218

> <Source>
Postera

> <smiles>
CCOC(=O)c1c(COc2cc(Cl)cc(CC(=O)Nc3cnccc3C)c2)oc2ccccc12

> <Outcome>
Inactive

> <StandardizerResult>
Clear Stereo (ID: ClearStereo)
Wedge Clean (ID: WedgeClean)
Mesomerize (ID: Mesomerize)
Tautomerize (ID: Tautomerize)
Aromatize (ID: Aromatize)
Add Explicit Hydrogens (ID: AddExplicitH)
Neutralize (ID: Neutralize)
Clean 2D (ID: Clean2D)

> <chiral flag>
0

> <version>
0

> <i_lp_mmshare_version>
41011

> <i_f3d_flags>
0

> <s_epik_input>
W2NIXTFbY0hdW2NIXVtjSF1jKGMxMiljKEMoPU8pT1tDSDJdW0NIM10pYyhvMilbQ0gyXU9jM1tjSF1jKENsKVtjSF1jKFtjSF0zKVtDSDJdQyg9TylbTkhdYzRbY0hdbltjSF1bY0hdYzRbQ0gzXQ==

> <s_epik_cmdline>
J2VwaWtfcHl0aG9uJywgJy1waHQnLCAnMC41JywgJy1waCcsICc3LjQnLCAnLXRuJywgJzgnLCAnLW1hJywgJzIwMCcsICctaW1hZScsICc8aW5maWxlLm1hZT4nLCAnLW9tYWUnLCAnPG91dGZpbGUubWFlPic=

> <r_lp_tautomer_probability>
1.0

> <r_epik_Ionization_Penalty>
0.0032

> <r_epik_Ionization_Penalty_Charging>
0.0

> <r_epik_Ionization_Penalty_Neutral>
0.0032

> <r_epik_State_Penalty>
0.0

> <r_epik_Charging_Adjusted_Penalty>
0.0

> <i_epik_Tot_Q>
0

> <i_epik_Tot_abs_Q>
0

> <s_lp_Force_Field>
OPLS3

> <r_lp_Energy>
44.136

> <b_lp_Chiralities_Consistent>
1

> <s_lp_Variant>
ligprep_COVID_compounds-withfrags-smallmolecules-forvalidation.maegz:69-1

> <i_glide_original_lignum>
243

> <s_i_glide_gridfile>
glide-grid_5RGK_M-PRO_COVID

> <i_i_glide_lignum>
243

> <r_i_docking_score>
-4.74336747275158

> <r_i_glide_ligand_efficiency>
-0.139510808022105

> <r_i_glide_ligand_efficiency_sa>
-0.451960859542911

> <r_i_glide_ligand_efficiency_ln>
-1.04794292168183

> <r_glide_XP_GScore>
-4.74336747275158

> <r_i_glide_gscore>
-4.74336747275158

> <r_i_glide_evdw>
-43.2343406677246

> <r_i_glide_ecoul>
-6.14525604248047

> <r_i_glide_energy>
-49.3795967102051

> <r_i_glide_einternal>
9.65960693359375

> <r_i_glide_emodel>
-68.5770494246317

> <r_glide_XP_HBond>
-0.7

> <i_i_glide_confnum>
1

> <i_i_glide_posenum>
1

> <r_i_glide_eff_state_penalty>
0.0

> <i_glide_XP_PoseRank>
1

> <s_epik_Chemistry_Notes>
This compound has an ester and may undergo hydrolysis at high or low pH.

> <MW>
478.13

> <cLogP>
5.73

> <TPSA>
90.66

> <Rotatable Bonds>
8

> <Fraction sp3>
0.19

> <HBA>
6

> <HBD>
1

> <Structure ID>


> <Submission Fragments>


$$$$
ligprep_COVID_compounds-withfrags-smallmolecules-forvalidation.maegz:93
                    3D
 Structure written by MMmdl.
 44 47  0  0  1  0            999 V2000
    9.7891   -1.6996   24.5873 C   0  0  0  0  0  0
    9.8557   -3.1195   24.4750 O   0  0  0  0  0  0
    8.9210   -3.7949   25.2276 C   0  0  0  0  0  0
    9.3558   -4.5642   26.3241 C   0  0  0  0  0  0
    8.4207   -5.2035   27.1608 C   0  0  0  0  0  0
    7.0437   -5.1012   26.8998 C   0  0  0  0  0  0
    5.9027   -5.8462   27.9572 Cl  0  0  0  0  0  0
    6.5993   -4.3802   25.7776 C   0  0  0  0  0  0
    7.5337   -3.7362   24.9396 C   0  0  0  0  0  0
    7.0691   -3.0336   23.8080 N   0  0  0  0  0  0
    7.1746   -3.4885   22.5605 C   0  0  0  0  0  0
    7.5748   -4.5950   22.1952 O   0  0  0  0  0  0
    6.7171   -2.3909   21.6267 C   0  0  0  0  0  0
    6.5032   -1.3153   22.5842 N   0  0  0  0  0  0
    6.6484    0.0840   22.1931 C   0  0  0  0  0  0
    5.8933    0.4434   20.9244 C   0  0  0  0  0  0
    6.4818    0.3317   19.7121 C   0  0  0  0  0  0
    5.8495    0.7870   18.4764 C   0  0  0  0  0  0
    6.3744    0.6830   17.3708 O   0  0  0  0  0  0
    4.6510    1.3822   18.6252 N   0  0  0  0  0  0
    3.9749    1.5495   19.8583 C   0  0  0  0  0  0
    2.7448    2.2359   19.8959 C   0  0  0  0  0  0
    2.0576    2.3740   21.1160 C   0  0  0  0  0  0
    2.6076    1.8368   22.2956 C   0  0  0  0  0  0
    3.8535    1.1796   22.2628 C   0  0  0  0  0  0
    4.5527    1.0443   21.0418 C   0  0  0  0  0  0
    6.6577   -1.7577   23.8431 C   0  0  0  0  0  0
    6.5395   -1.0812   24.8603 O   0  0  0  0  0  0
   10.7749   -1.2576   24.5696 H   0  0  0  0  0  0
    9.3197   -1.3811   25.5199 H   0  0  0  0  0  0
    9.2469   -1.2446   23.7702 H   0  0  0  0  0  0
   10.4097   -4.6462   26.5427 H   0  0  0  0  0  0
    8.7658   -5.7640   28.0162 H   0  0  0  0  0  0
    5.5425   -4.3159   25.5633 H   0  0  0  0  0  0
    7.4789   -2.1639   20.8854 H   0  0  0  0  0  0
    5.7879   -2.6437   21.1183 H   0  0  0  0  0  0
    6.4246    0.7814   23.0005 H   0  0  0  0  0  0
    7.7059    0.2362   22.0067 H   0  0  0  0  0  0
    7.4823   -0.0706   19.6495 H   0  0  0  0  0  0
    4.1984    1.7525   17.7997 H   0  0  0  0  0  0
    2.3286    2.6556   18.9915 H   0  0  0  0  0  0
    1.1140    2.8979   21.1482 H   0  0  0  0  0  0
    2.0811    1.9437   23.2324 H   0  0  0  0  0  0
    4.2557    0.7873   23.1844 H   0  0  0  0  0  0
  1  2  1  0  0  0
  1 29  1  0  0  0
  1 30  1  0  0  0
  1 31  1  0  0  0
  2  3  1  0  0  0
  3  4  2  0  0  0
  3  9  1  0  0  0
  4  5  1  0  0  0
  4 32  1  0  0  0
  5  6  2  0  0  0
  5 33  1  0  0  0
  6  7  1  0  0  0
  6  8  1  0  0  0
  8  9  2  0  0  0
  8 34  1  0  0  0
  9 10  1  0  0  0
 10 11  1  0  0  0
 10 27  1  0  0  0
 11 12  2  0  0  0
 11 13  1  0  0  0
 13 14  1  0  0  0
 13 35  1  0  0  0
 13 36  1  0  0  0
 14 15  1  0  0  0
 14 27  1  0  0  0
 15 16  1  0  0  0
 15 37  1  0  0  0
 15 38  1  0  0  0
 16 17  2  0  0  0
 16 26  1  0  0  0
 17 18  1  0  0  0
 17 39  1  0  0  0
 18 19  2  0  0  0
 18 20  1  0  0  0
 20 21  1  0  0  0
 20 40  1  0  0  0
 21 22  2  0  0  0
 21 26  1  0  0  0
 22 23  1  0  0  0
 22 41  1  0  0  0
 23 24  2  0  0  0
 23 42  1  0  0  0
 24 25  1  0  0  0
 24 43  1  0  0  0
 25 26  2  0  0  0
 25 44  1  0  0  0
 27 28  2  0  0  0
M  END
> <s_m_entry_id>
772

> <s_m_entry_name>
Compounds-withfrags-for-validation-docking.1824

> <s_m_Source_Path>
/home/rodolpho/data/melina/maestro/glide-dock_XP_5RGK_M-PRO_VALIDATION

> <s_m_Source_File>
glide-dock_XP_5RGK_M-PRO_VALIDATION_pv.maegz

> <i_m_Source_File_Index>
772

> <CID>
JAG-UCB-c37fbdcd-2

> <Potency>
99.5

> <pIC50>
4.00218

> <Source>
Postera

> <smiles>
COc1ccc(Cl)cc1N1C(=O)CN(Cc2cc(=O)[nH]c3ccccc23)C1=O

> <Outcome>
Inactive

> <StandardizerResult>
Clear Stereo (ID: ClearStereo)
Wedge Clean (ID: WedgeClean)
Mesomerize (ID: Mesomerize)
Tautomerize (ID: Tautomerize)
Aromatize (ID: Aromatize)
Add Explicit Hydrogens (ID: AddExplicitH)
Neutralize (ID: Neutralize)
Clean 2D (ID: Clean2D)

> <chiral flag>
0

> <version>
0

> <i_lp_mmshare_version>
41011

> <i_f3d_flags>
0

> <s_epik_input>
W0NIM11PYzFbY0hdW2NIXWMoQ2wpW2NIXWMxTjJDKD1PKVtDSDJdTihDMj1PKVtDSDJdYyhbY0hdYyg9TylbbkhdMyljKGMzNClbY0hdW2NIXVtjSF1bY0hdNA==

> <s_epik_cmdline>
J2VwaWtfcHl0aG9uJywgJy1waHQnLCAnMC41JywgJy1waCcsICc3LjQnLCAnLXRuJywgJzgnLCAnLW1hJywgJzIwMCcsICctaW1hZScsICc8aW5maWxlLm1hZT4nLCAnLW9tYWUnLCAnPG91dGZpbGUubWFlPic=

> <r_lp_tautomer_probability>
1.0

> <r_epik_Ionization_Penalty>
1.0E-4

> <r_epik_Ionization_Penalty_Charging>
1.0E-4

> <r_epik_Ionization_Penalty_Neutral>
0.0

> <r_epik_State_Penalty>
0.0

> <r_epik_Charging_Adjusted_Penalty>
1.4096E-4

> <i_epik_Tot_Q>
0

> <i_epik_Tot_abs_Q>
0

> <s_lp_Force_Field>
OPLS3

> <r_lp_Energy>
34.4726

> <b_lp_Chiralities_Consistent>
1

> <s_lp_Variant>
ligprep_COVID_compounds-withfrags-smallmolecules-forvalidation.maegz:93-1

> <i_glide_original_lignum>
281

> <s_i_glide_gridfile>
glide-grid_5RGK_M-PRO_COVID

> <i_i_glide_lignum>
281

> <r_i_docking_score>
-4.74119589157733

> <r_i_glide_ligand_efficiency>
-0.16932842469919

> <r_i_glide_ligand_efficiency_sa>
-0.514180826495522

> <r_i_glide_ligand_efficiency_ln>
-1.09440721933637

> <r_glide_XP_GScore>
-4.74119589157733

> <r_i_glide_gscore>
-4.74119589157733

> <r_i_glide_evdw>
-36.6903915405273

> <r_i_glide_ecoul>
-9.03457641601562

> <r_i_glide_energy>
-45.724967956543

> <r_i_glide_einternal>
6.6319842338562

> <r_i_glide_emodel>
-60.2287000957048

> <r_glide_XP_HBond>
-0.7

> <i_i_glide_confnum>
1

> <i_i_glide_posenum>
3

> <r_i_glide_eff_state_penalty>
0.0

> <i_glide_XP_PoseRank>
1

> <MW>
397.08

> <cLogP>
3.16

> <TPSA>
82.71

> <Rotatable Bonds>
4

> <Fraction sp3>
0.15

> <HBA>
4

> <HBD>
1

> <s_epik_Chemistry_Notes>


> <Structure ID>


> <Submission Fragments>


$$$$
ligprep_COVID_compounds-withfrags-smallmolecules-forvalidation.maegz:47
                    3D
 Structure written by MMmdl.
 76 79  0  0  1  0            999 V2000
   -0.1661    3.1773   23.1239 C   0  0  0  0  0  0
    0.0988    2.1154   24.2060 C   0  0  2  0  0  0
    1.4921    1.4719   24.0373 C   0  0  0  0  0  0
    1.7774    0.3743   25.0897 C   0  0  2  0  0  0
    3.1484   -0.3031   24.8732 C   0  0  0  0  0  0
    4.0315    0.3766   23.8022 C   0  0  0  0  0  0
    5.4167   -0.1340   23.7706 N   0  0  0  0  0  0
    5.8481   -1.2425   24.4599 C   0  0  0  0  0  0
    5.1229   -1.8603   25.2427 O   0  0  0  0  0  0
    7.1821   -1.7590   24.2313 C   0  0  0  0  0  0
    8.4612   -1.2886   24.5333 C   0  0  0  0  0  0
    9.3645   -2.2947   24.1883 C   0  0  0  0  0  0
    8.6046   -3.3641   23.7532 C   0  0  0  0  0  0
    7.2852   -3.0517   23.8122 O   0  0  0  0  0  0
    6.2887    0.6073   22.8032 C   0  0  2  0  0  0
    6.4950    2.0859   23.2382 C   0  0  0  0  0  0
    5.6699    2.6473   23.9601 O   0  0  0  0  0  0
    7.5996    2.6840   22.7614 N   0  0  0  0  0  0
    8.2741    3.8091   23.4008 C   0  0  0  0  0  0
    9.3432    3.3689   24.4209 C   0  0  0  0  0  0
   10.6873    3.0815   23.7706 C   0  0  0  0  0  0
   11.2530    1.8051   23.8575 C   0  0  0  0  0  0
   12.4889    1.5427   23.2650 C   0  0  0  0  0  0
   13.1651    2.5548   22.5831 C   0  0  0  0  0  0
   12.6059    3.8299   22.4940 C   0  0  0  0  0  0
   13.2617    4.8111   21.8337 F   0  0  0  0  0  0
   11.3703    4.0933   23.0868 C   0  0  0  0  0  0
    5.8905    0.3738   21.3428 C   0  0  0  0  0  0
    5.1152    1.2829   20.5986 C   0  0  0  0  0  0
    4.8072    1.0206   19.2629 C   0  0  0  0  0  0
    5.2948   -0.1504   18.6858 C   0  0  0  0  0  0
    6.0599   -1.0404   19.3637 N   0  0  0  0  0  0
    6.3464   -0.7672   20.6617 C   0  0  0  0  0  0
    0.6401   -0.6794   25.1071 C   0  0  0  0  0  0
   -0.7934   -0.0943   25.2756 C   0  0  0  0  0  0
   -1.8106   -1.2223   24.9861 C   0  0  0  0  0  0
   -0.9729    0.4666   26.7083 C   0  0  0  0  0  0
   -1.0121    1.0374   24.2284 C   0  0  0  0  0  0
   -0.1648    2.7390   22.1250 H   0  0  0  0  0  0
    0.5938    3.9594   23.1437 H   0  0  0  0  0  0
   -1.1329    3.6594   23.2725 H   0  0  0  0  0  0
    0.0878    2.6375   25.1636 H   0  0  0  0  0  0
    1.5731    1.0420   23.0372 H   0  0  0  0  0  0
    2.2546    2.2496   24.0960 H   0  0  0  0  0  0
    1.8060    0.8496   26.0712 H   0  0  0  0  0  0
    3.6892   -0.3310   25.8201 H   0  0  0  0  0  0
    2.9885   -1.3466   24.6037 H   0  0  0  0  0  0
    3.5788    0.2272   22.8214 H   0  0  0  0  0  0
    4.0185    1.4571   23.9380 H   0  0  0  0  0  0
    8.7269   -0.3327   24.9545 H   0  0  0  0  0  0
   10.4403   -2.2568   24.2730 H   0  0  0  0  0  0
    8.8462   -4.3589   23.4083 H   0  0  0  0  0  0
    7.2843    0.1658   22.8767 H   0  0  0  0  0  0
    8.0399    2.3059   21.9350 H   0  0  0  0  0  0
    8.7470    4.3949   22.6114 H   0  0  0  0  0  0
    7.5448    4.4728   23.8707 H   0  0  0  0  0  0
    9.4768    4.1362   25.1856 H   0  0  0  0  0  0
    9.0078    2.4789   24.9567 H   0  0  0  0  0  0
   10.7371    1.0165   24.3863 H   0  0  0  0  0  0
   12.9226    0.5560   23.3353 H   0  0  0  0  0  0
   14.1216    2.3511   22.1245 H   0  0  0  0  0  0
   10.9455    5.0840   23.0143 H   0  0  0  0  0  0
    4.7421    2.1954   21.0380 H   0  0  0  0  0  0
    4.2058    1.7104   18.6895 H   0  0  0  0  0  0
    5.0774   -0.3885   17.6548 H   0  0  0  0  0  0
    6.9669   -1.4983   21.1591 H   0  0  0  0  0  0
    0.6890   -1.2448   24.1738 H   0  0  0  0  0  0
    0.8315   -1.4086   25.8966 H   0  0  0  0  0  0
   -2.8373   -0.8646   25.0757 H   0  0  0  0  0  0
   -1.6954   -2.0508   25.6866 H   0  0  0  0  0  0
   -1.6955   -1.6299   23.9807 H   0  0  0  0  0  0
   -1.9725    0.8809   26.8462 H   0  0  0  0  0  0
   -0.2637    1.2572   26.9494 H   0  0  0  0  0  0
   -0.8453   -0.3167   27.4565 H   0  0  0  0  0  0
   -1.9798    1.5136   24.3969 H   0  0  0  0  0  0
   -1.0760    0.5961   23.2314 H   0  0  0  0  0  0
  1  2  1  0  0  0
  1 39  1  0  0  0
  1 40  1  0  0  0
  1 41  1  0  0  0
  2  3  1  0  0  0
  2 38  1  0  0  0
  2 42  1  0  0  0
  3  4  1  0  0  0
  3 43  1  0  0  0
  3 44  1  0  0  0
  4  5  1  0  0  0
  4 34  1  0  0  0
  4 45  1  0  0  0
  5  6  1  0  0  0
  5 46  1  0  0  0
  5 47  1  0  0  0
  6  7  1  0  0  0
  6 48  1  0  0  0
  6 49  1  0  0  0
  7  8  1  0  0  0
  7 15  1  0  0  0
  8  9  2  0  0  0
  8 10  1  0  0  0
 10 11  2  0  0  0
 10 14  1  0  0  0
 11 12  1  0  0  0
 11 50  1  0  0  0
 12 13  2  0  0  0
 12 51  1  0  0  0
 13 14  1  0  0  0
 13 52  1  0  0  0
 15 16  1  0  0  0
 15 28  1  0  0  0
 15 53  1  0  0  0
 16 17  2  0  0  0
 16 18  1  0  0  0
 18 19  1  0  0  0
 18 54  1  0  0  0
 19 20  1  0  0  0
 19 55  1  0  0  0
 19 56  1  0  0  0
 20 21  1  0  0  0
 20 57  1  0  0  0
 20 58  1  0  0  0
 21 22  2  0  0  0
 21 27  1  0  0  0
 22 23  1  0  0  0
 22 59  1  0  0  0
 23 24  2  0  0  0
 23 60  1  0  0  0
 24 25  1  0  0  0
 24 61  1  0  0  0
 25 26  1  0  0  0
 25 27  2  0  0  0
 27 62  1  0  0  0
 28 29  2  0  0  0
 28 33  1  0  0  0
 29 30  1  0  0  0
 29 63  1  0  0  0
 30 31  2  0  0  0
 30 64  1  0  0  0
 31 32  1  0  0  0
 31 65  1  0  0  0
 32 33  2  0  0  0
 33 66  1  0  0  0
 34 35  1  0  0  0
 34 67  1  0  0  0
 34 68  1  0  0  0
 35 36  1  0  0  0
 35 37  1  0  0  0
 35 38  1  0  0  0
 36 69  1  0  0  0
 36 70  1  0  0  0
 36 71  1  0  0  0
 37 72  1  0  0  0
 37 73  1  0  0  0
 37 74  1  0  0  0
 38 75  1  0  0  0
 38 76  1  0  0  0
M  END
> <s_m_entry_id>
815

> <s_m_entry_name>
Compounds-withfrags-for-validation-docking.1870

> <s_m_Source_Path>
/home/rodolpho/data/melina/maestro/glide-dock_XP_5RGK_M-PRO_VALIDATION

> <s_m_Source_File>
glide-dock_XP_5RGK_M-PRO_VALIDATION_pv.maegz

> <i_m_Source_File_Index>
815

> <CID>
ALP-POS-b0bc6a46-1

> <Potency>
99.5

> <pIC50>
4.00218

> <Source>
Postera

> <smiles>
CC1CC(CCN(C(=O)c2ccco2)C(C(=O)NCCc2cccc(F)c2)c2cccnc2)CC(C)(C)C1

> <Outcome>
Inactive

> <StandardizerResult>
Clear Stereo (ID: ClearStereo)
Wedge Clean (ID: WedgeClean)
Mesomerize (ID: Mesomerize)
Tautomerize (ID: Tautomerize)
Aromatize (ID: Aromatize)
Add Explicit Hydrogens (ID: AddExplicitH)
Neutralize (ID: Neutralize)
Clean 2D (ID: Clean2D)

> <chiral flag>
0

> <version>
0

> <i_lp_mmshare_version>
41011

> <i_f3d_flags>
0

> <s_epik_input>
W0NIM11bQ0BASF0oW0NIMl0xKVtDSDJdW0NAQEhdKFtDSDJdQzEoW0NIM10pW0NIM10pW0NIMl1bQ0gyXU4oQyg9TyljMltjSF1bY0hdW2NIXW8yKVtDQEBIXShjM1tjSF1bY0hdW2NIXW5bY0hdMylDKD1PKVtOSF1bQ0gyXVtDSDJdYzRbY0hdW2NIXVtjSF1jKEYpW2NIXTQ=

> <s_epik_cmdline>
J2VwaWtfcHl0aG9uJywgJy1waHQnLCAnMC41JywgJy1waCcsICc3LjQnLCAnLXRuJywgJzgnLCAnLW1hJywgJzIwMCcsICctaW1hZScsICc8aW5maWxlLm1hZT4nLCAnLW9tYWUnLCAnPG91dGZpbGUubWFlPic=

> <r_lp_tautomer_probability>
1.0

> <r_epik_Ionization_Penalty>
8.0E-4

> <r_epik_Ionization_Penalty_Charging>
0.0

> <r_epik_Ionization_Penalty_Neutral>
8.0E-4

> <r_epik_State_Penalty>
0.0

> <r_epik_Charging_Adjusted_Penalty>
0.0

> <i_epik_Tot_Q>
0

> <i_epik_Tot_abs_Q>
0

> <s_lp_Force_Field>
OPLS3

> <r_lp_Energy>
55.127

> <b_lp_Chiralities_Consistent>
1

> <s_lp_Variant>
ligprep_COVID_compounds-withfrags-smallmolecules-forvalidation.maegz:47-7

> <i_glide_original_lignum>
211

> <s_i_glide_gridfile>
glide-grid_5RGK_M-PRO_COVID

> <i_i_glide_lignum>
211

> <r_i_docking_score>
-4.70509506674112

> <r_i_glide_ligand_efficiency>
-0.12381829123003

> <r_i_glide_ligand_efficiency_sa>
-0.416274049522487

> <r_i_glide_ligand_efficiency_ln>
-1.01455690626322

> <r_glide_XP_GScore>
-4.70509506674112

> <r_i_glide_gscore>
-4.70509506674112

> <r_i_glide_evdw>
-33.5910224914551

> <r_i_glide_ecoul>
-8.63587188720703

> <r_i_glide_energy>
-42.2268943786621

> <r_i_glide_einternal>
1.95370590686798

> <r_i_glide_emodel>
-62.956546655732

> <r_glide_XP_HBond>
-0.844860662814374

> <i_i_glide_confnum>
2

> <i_i_glide_posenum>
15

> <r_i_glide_eff_state_penalty>
0.0

> <i_glide_XP_PoseRank>
1

> <MW>
519.29

> <cLogP>
6.21

> <TPSA>
75.44

> <Rotatable Bonds>
10

> <Fraction sp3>
0.45

> <HBA>
4

> <HBD>
1

> <s_epik_Chemistry_Notes>


> <Structure ID>


> <Submission Fragments>


$$$$
ligprep_COVID_compounds-withfrags-smallmolecules-forvalidation.maegz:64
                    3D
 Structure written by MMmdl.
 48 51  0  0  1  0            999 V2000
   11.9719    6.7460   24.6729 C   0  0  0  0  0  0
   11.2906    7.3780   25.8758 C   0  0  0  0  0  0
   11.9348    8.4322   26.5570 C   0  0  0  0  0  0
   11.3172    8.9815   27.6959 C   0  0  0  0  0  0
   10.1393    8.5451   28.1840 N   0  0  0  0  0  0
    9.5259    7.5326   27.5376 C   0  0  0  0  0  0
   10.0399    6.9271   26.3730 C   0  0  0  0  0  0
    9.3347    5.8364   25.8063 N   0  0  0  0  0  0
    8.7804    5.8082   24.5827 C   0  0  0  0  0  0
    8.6890    6.8005   23.8592 O   0  0  0  0  0  0
    8.2751    4.4423   24.0942 C   0  0  0  0  0  0
    9.4212    3.4374   23.9776 C   0  0  0  0  0  0
   10.6350    3.8183   23.3688 C   0  0  0  0  0  0
   11.7077    2.9201   23.2785 C   0  0  0  0  0  0
   13.1750    3.4282   22.5364 Cl  0  0  0  0  0  0
   11.5701    1.6114   23.7707 C   0  0  0  0  0  0
   10.3468    1.1867   24.3307 C   0  0  0  0  0  0
   10.2709   -0.1324   24.7102 O   0  0  0  0  0  0
    8.9825   -0.7312   24.8143 C   0  0  0  0  0  0
    9.1072   -2.2232   24.9057 C   0  0  0  0  0  0
    9.9748   -2.8836   24.1706 N   0  0  0  0  0  0
    9.8927   -4.1777   24.5685 N   0  0  0  0  0  0
    8.9242   -4.4046   25.5253 C   0  0  0  0  0  0
    8.4745   -5.5481   26.2051 C   0  0  0  0  0  0
    7.4258   -5.4230   27.1344 C   0  0  0  0  0  0
    6.8410   -4.1630   27.3687 C   0  0  0  0  0  0
    7.3113   -3.0183   26.6899 C   0  0  0  0  0  0
    8.3664   -3.1162   25.7524 C   0  0  0  0  0  0
    9.2781    2.1137   24.4523 C   0  0  0  0  0  0
   11.3392    6.7722   23.7874 H   0  0  0  0  0  0
   12.2346    5.7109   24.8912 H   0  0  0  0  0  0
   12.8855    7.2791   24.4176 H   0  0  0  0  0  0
   12.8906    8.8086   26.2218 H   0  0  0  0  0  0
   11.7888    9.7887   28.2372 H   0  0  0  0  0  0
    8.5920    7.1963   27.9648 H   0  0  0  0  0  0
    9.2299    5.0153   26.3861 H   0  0  0  0  0  0
    7.5117    4.0732   24.7794 H   0  0  0  0  0  0
    7.8007    4.5536   23.1177 H   0  0  0  0  0  0
   10.7466    4.8038   22.9444 H   0  0  0  0  0  0
   12.3939    0.9164   23.6853 H   0  0  0  0  0  0
    8.4737   -0.3440   25.6972 H   0  0  0  0  0  0
    8.3752   -0.4707   23.9455 H   0  0  0  0  0  0
   10.4655   -4.8852   24.1221 H   0  0  0  0  0  0
    8.9251   -6.5159   26.0288 H   0  0  0  0  0  0
    7.0728   -6.2993   27.6612 H   0  0  0  0  0  0
    6.0321   -4.0741   28.0796 H   0  0  0  0  0  0
    6.8581   -2.0586   26.8859 H   0  0  0  0  0  0
    8.3379    1.8190   24.8949 H   0  0  0  0  0  0
  1  2  1  0  0  0
  1 30  1  0  0  0
  1 31  1  0  0  0
  1 32  1  0  0  0
  2  3  2  0  0  0
  2  7  1  0  0  0
  3  4  1  0  0  0
  3 33  1  0  0  0
  4  5  2  0  0  0
  4 34  1  0  0  0
  5  6  1  0  0  0
  6  7  2  0  0  0
  6 35  1  0  0  0
  7  8  1  0  0  0
  8  9  1  0  0  0
  8 36  1  0  0  0
  9 10  2  0  0  0
  9 11  1  0  0  0
 11 12  1  0  0  0
 11 37  1  0  0  0
 11 38  1  0  0  0
 12 13  2  0  0  0
 12 29  1  0  0  0
 13 14  1  0  0  0
 13 39  1  0  0  0
 14 15  1  0  0  0
 14 16  2  0  0  0
 16 17  1  0  0  0
 16 40  1  0  0  0
 17 18  1  0  0  0
 17 29  2  0  0  0
 18 19  1  0  0  0
 19 41  1  0  0  0
 19 42  1  0  0  0
 19 20  1  0  0  0
 20 28  1  0  0  0
 20 21  2  0  0  0
 21 22  1  0  0  0
 22 43  1  0  0  0
 22 23  1  0  0  0
 23 24  1  0  0  0
 23 28  2  0  0  0
 24 44  1  0  0  0
 24 25  2  0  0  0
 25 45  1  0  0  0
 25 26  1  0  0  0
 26 46  1  0  0  0
 26 27  2  0  0  0
 27 47  1  0  0  0
 27 28  1  0  0  0
 29 48  1  0  0  0
M  END
> <s_m_entry_id>
820

> <s_m_entry_name>
Compounds-withfrags-for-validation-docking.1853

> <s_m_Source_Path>
/home/rodolpho/data/melina/maestro/glide-dock_XP_5RGK_M-PRO_VALIDATION

> <s_m_Source_File>
glide-dock_XP_5RGK_M-PRO_VALIDATION_pv.maegz

> <i_m_Source_File_Index>
820

> <CID>
MAT-POS-173a45da-2

> <Potency>
99.5

> <pIC50>
4.00218

> <Source>
Postera

> <smiles>
Cc1ccncc1NC(=O)Cc1cc(Cl)cc(OCc2n[nH]c3ccccc23)c1

> <Outcome>
Inactive

> <StandardizerResult>
Clear Stereo (ID: ClearStereo)
Wedge Clean (ID: WedgeClean)
Mesomerize (ID: Mesomerize)
Tautomerize (ID: Tautomerize)
Aromatize (ID: Aromatize)
Add Explicit Hydrogens (ID: AddExplicitH)
Neutralize (ID: Neutralize)
Clean 2D (ID: Clean2D)

> <chiral flag>
0

> <version>
0

> <i_lp_mmshare_version>
41011

> <i_f3d_flags>
0

> <s_epik_input>
W0NIM11jMVtjSF1bY0hdbltjSF1jMVtOSF1DKD1PKVtDSDJdYzJbY0hdYyhDbClbY0hdYyhbY0hdMilPW0NIMl1jKFtuSF1uMyljKGMzNClbY0hdW2NIXVtjSF1bY0hdNA==

> <s_epik_cmdline>
J2VwaWtfcHl0aG9uJywgJy1waHQnLCAnMC41JywgJy1waCcsICc3LjQnLCAnLXRuJywgJzgnLCAnLW1hJywgJzIwMCcsICctaW1hZScsICc8aW5maWxlLm1hZT4nLCAnLW9tYWUnLCAnPG91dGZpbGUubWFlPic=

> <r_lp_tautomer_probability>
1.0

> <r_epik_Ionization_Penalty>
0.0032

> <r_epik_Ionization_Penalty_Charging>
0.0

> <r_epik_Ionization_Penalty_Neutral>
0.0032

> <r_epik_State_Penalty>
0.0

> <r_epik_Charging_Adjusted_Penalty>
0.0

> <i_epik_Tot_Q>
0

> <i_epik_Tot_abs_Q>
0

> <s_lp_Force_Field>
OPLS3

> <r_lp_Energy>
41.1905

> <b_lp_Chiralities_Consistent>
1

> <s_lp_Variant>
ligprep_COVID_compounds-withfrags-smallmolecules-forvalidation.maegz:64-1

> <i_glide_original_lignum>
237

> <s_i_glide_gridfile>
glide-grid_5RGK_M-PRO_COVID

> <i_i_glide_lignum>
237

> <r_i_docking_score>
-4.70250676020341

> <r_i_glide_ligand_efficiency>
-0.162155405524256

> <r_i_glide_ligand_efficiency_sa>
-0.498192780208895

> <r_i_glide_ligand_efficiency_ln>
-1.07675480280391

> <r_glide_XP_GScore>
-4.70250676020341

> <r_i_glide_gscore>
-4.70250676020341

> <r_i_glide_evdw>
-42.4389686584473

> <r_i_glide_ecoul>
-8.67376518249512

> <r_i_glide_energy>
-51.1127338409424

> <r_i_glide_einternal>
4.90876436233521

> <r_i_glide_emodel>
-70.2438034105804

> <r_glide_XP_HBond>
-0.950255020137243

> <i_i_glide_confnum>
1

> <i_i_glide_posenum>
3

> <r_i_glide_eff_state_penalty>
0.0

> <i_glide_XP_PoseRank>
1

> <MW>
406.12

> <cLogP>
4.68

> <TPSA>
79.9

> <Rotatable Bonds>
6

> <Fraction sp3>
0.14

> <HBA>
4

> <HBD>
2

> <s_epik_Chemistry_Notes>


> <Structure ID>


> <Submission Fragments>


$$$$
ligprep_COVID_compounds-withfrags-smallmolecules-forvalidation.maegz:49
                    3D
 Structure written by MMmdl.
 32 34  0  0  1  0            999 V2000
    7.9751    4.2309   23.3710 N   0  0  0  0  0  0
    8.7467    3.1575   23.8217 C   0  0  0  0  0  0
    8.2444    2.1165   24.4388 N   0  0  0  0  0  0
    9.3009    1.3001   24.7218 N   0  0  0  0  0  0
    9.1166    0.1255   25.5163 C   0  0  0  0  0  0
   10.0369   -0.1637   26.2767 O   0  0  0  0  0  0
    7.8644   -0.7525   25.3891 C   0  0  0  0  0  0
    8.2100   -2.2377   25.5001 C   0  0  0  0  0  0
    9.1750   -2.8327   24.6536 C   0  0  0  0  0  0
    9.5145   -4.1921   24.8025 C   0  0  0  0  0  0
    8.8719   -4.9781   25.7772 C   0  0  0  0  0  0
    7.8880   -4.4010   26.6013 C   0  0  0  0  0  0
    7.0741   -5.3641   27.7751 Cl  0  0  0  0  0  0
    7.5635   -3.0364   26.4684 C   0  0  0  0  0  0
   10.4874    1.7796   24.1709 C   0  0  0  0  0  0
   11.7879    1.2495   24.0628 C   0  0  0  0  0  0
   12.7747    1.9749   23.3704 C   0  0  0  0  0  0
   12.4778    3.2514   22.8542 C   0  0  0  0  0  0
   13.4396    3.9668   22.2239 F   0  0  0  0  0  0
   11.1805    3.7829   22.9884 C   0  0  0  0  0  0
   10.1517    3.0386   23.6107 C   0  0  0  0  0  0
    8.3961    4.8449   22.6884 H   0  0  0  0  0  0
    6.9883    4.0730   23.1944 H   0  0  0  0  0  0
    7.1750   -0.4940   26.1898 H   0  0  0  0  0  0
    7.3605   -0.5640   24.4402 H   0  0  0  0  0  0
    9.6815   -2.2452   23.9046 H   0  0  0  0  0  0
   10.2706   -4.6349   24.1709 H   0  0  0  0  0  0
    9.1286   -6.0226   25.8911 H   0  0  0  0  0  0
    6.8139   -2.6063   27.1164 H   0  0  0  0  0  0
   12.0151    0.2810   24.4818 H   0  0  0  0  0  0
   13.7693    1.5692   23.2571 H   0  0  0  0  0  0
   10.9534    4.7520   22.5708 H   0  0  0  0  0  0
  1  2  1  0  0  0
  1 22  1  0  0  0
  1 23  1  0  0  0
  2  3  2  0  0  0
  2 21  1  0  0  0
  3  4  1  0  0  0
  4  5  1  0  0  0
  4 15  1  0  0  0
  5  6  2  0  0  0
  5  7  1  0  0  0
  7  8  1  0  0  0
  7 24  1  0  0  0
  7 25  1  0  0  0
  8  9  2  0  0  0
  8 14  1  0  0  0
  9 10  1  0  0  0
  9 26  1  0  0  0
 10 11  2  0  0  0
 10 27  1  0  0  0
 11 12  1  0  0  0
 11 28  1  0  0  0
 12 13  1  0  0  0
 12 14  2  0  0  0
 14 29  1  0  0  0
 15 16  2  0  0  0
 15 21  1  0  0  0
 16 17  1  0  0  0
 16 30  1  0  0  0
 17 18  2  0  0  0
 17 31  1  0  0  0
 18 19  1  0  0  0
 18 20  1  0  0  0
 20 21  2  0  0  0
 20 32  1  0  0  0
M  END
> <s_m_entry_id>
834

> <s_m_entry_name>
Compounds-withfrags-for-validation-docking.1868

> <s_m_Source_Path>
/home/rodolpho/data/melina/maestro/glide-dock_XP_5RGK_M-PRO_VALIDATION

> <s_m_Source_File>
glide-dock_XP_5RGK_M-PRO_VALIDATION_pv.maegz

> <i_m_Source_File_Index>
834

> <CID>
ALP-POS-cd485364-1

> <Potency>
99.5

> <pIC50>
4.00218

> <Source>
Postera

> <smiles>
Nc1nn(C(=O)Cc2cccc(Cl)c2)c2ccc(F)cc12

> <Outcome>
Inactive

> <StandardizerResult>
Clear Stereo (ID: ClearStereo)
Wedge Clean (ID: WedgeClean)
Mesomerize (ID: Mesomerize)
Tautomerize (ID: Tautomerize)
Aromatize (ID: Aromatize)
Add Explicit Hydrogens (ID: AddExplicitH)
Neutralize (ID: Neutralize)
Clean 2D (ID: Clean2D)

> <chiral flag>
0

> <version>
0

> <i_lp_mmshare_version>
41011

> <i_f3d_flags>
0

> <s_epik_input>
W2NIXTFbY0hdYyhGKVtjSF1jKGMxMiljKFtOSDJdKW5uMkMoPU8pW0NIMl1jM1tjSF1bY0hdW2NIXWMoQ2wpW2NIXTM=

> <s_epik_cmdline>
J2VwaWtfcHl0aG9uJywgJy1waHQnLCAnMC41JywgJy1waCcsICc3LjQnLCAnLXRuJywgJzgnLCAnLW1hJywgJzIwMCcsICctaW1hZScsICc8aW5maWxlLm1hZT4nLCAnLW9tYWUnLCAnPG91dGZpbGUubWFlPic=

> <r_lp_tautomer_probability>
1.0

> <r_epik_Ionization_Penalty>
3.0E-4

> <r_epik_Ionization_Penalty_Charging>
0.0

> <r_epik_Ionization_Penalty_Neutral>
3.0E-4

> <r_epik_State_Penalty>
0.0

> <r_epik_Charging_Adjusted_Penalty>
0.0

> <i_epik_Tot_Q>
0

> <i_epik_Tot_abs_Q>
0

> <s_lp_Force_Field>
OPLS3

> <r_lp_Energy>
22.0786

> <b_lp_Chiralities_Consistent>
1

> <s_lp_Variant>
ligprep_COVID_compounds-withfrags-smallmolecules-forvalidation.maegz:49-1

> <i_glide_original_lignum>
215

> <s_i_glide_gridfile>
glide-grid_5RGK_M-PRO_COVID

> <i_i_glide_lignum>
215

> <r_i_docking_score>
-4.69381450783009

> <r_i_glide_ligand_efficiency>
-0.223514976563337

> <r_i_glide_ligand_efficiency_sa>
-0.616660871998039

> <r_i_glide_ligand_efficiency_ln>
-1.16053615231571

> <r_glide_XP_GScore>
-4.69381450783009

> <r_i_glide_gscore>
-4.69381450783009

> <r_i_glide_evdw>
-31.7250747680664

> <r_i_glide_ecoul>
-5.17384099960327

> <r_i_glide_energy>
-36.8989157676697

> <r_i_glide_einternal>
0.0132459430024028

> <r_i_glide_emodel>
-51.9467255925008

> <r_glide_XP_HBond>
-0.41478598970608

> <i_i_glide_confnum>
1

> <i_i_glide_posenum>
43

> <r_i_glide_eff_state_penalty>
0.0

> <i_glide_XP_PoseRank>
1

> <MW>
303.06

> <cLogP>
3.29

> <TPSA>
60.91

> <Rotatable Bonds>
2

> <Fraction sp3>
0.07

> <HBA>
4

> <HBD>
1

> <s_epik_Chemistry_Notes>


> <Structure ID>


> <Submission Fragments>


$$$$
ligprep_COVID_compounds-withfrags-smallmolecules-forvalidation.maegz:13
                    3D
 Structure written by MMmdl.
 73 76  0  0  1  0            999 V2000
    2.5462   -5.3626   27.4117 C   0  0  0  0  0  0
    4.0565   -5.6398   27.2726 C   0  0  0  0  0  0
    4.6969   -5.7114   28.6731 C   0  0  0  0  0  0
    4.2121   -7.0296   26.6194 C   0  0  0  0  0  0
    4.7222   -4.5103   26.4646 C   0  0  0  0  0  0
    4.6132   -3.1763   26.9197 C   0  0  0  0  0  0
    5.2297   -2.1180   26.2283 C   0  0  0  0  0  0
    5.9749   -2.3698   25.0577 C   0  0  0  0  0  0
    6.6797   -1.3128   24.4003 N   0  0  0  0  0  0
    5.9489   -0.5636   23.5190 C   0  0  0  0  0  0
    4.7929   -0.2102   23.7695 O   0  0  0  0  0  0
    6.5351   -0.0769   22.1739 C   0  0  1  0  0  0
    6.3626   -1.1803   21.1156 C   0  0  0  0  0  0
    6.2214   -0.4188   19.8076 C   0  0  0  0  0  0
    5.4904    0.8636   20.2112 C   0  0  0  0  0  0
    5.7660    1.0801   21.6475 N   0  3  0  0  0  0
    8.1782   -1.3242   24.4332 C   0  0  1  0  0  0
    8.7920   -0.0742   25.1361 C   0  0  0  0  0  0
    9.5745   -0.1662   26.0854 O   0  0  0  0  0  0
    8.4640    1.1224   24.6229 N   0  0  0  0  0  0
    8.9405    2.4173   25.0962 C   0  0  0  0  0  0
    9.3319    3.3572   23.9401 C   0  0  0  0  0  0
   10.7771    3.2275   23.4702 C   0  0  0  0  0  0
   11.4503    1.9843   23.4656 C   0  0  0  0  0  0
   12.7752    1.8963   23.0073 C   0  0  0  0  0  0
   13.4378    3.0542   22.5696 C   0  0  0  0  0  0
   12.7851    4.2969   22.5715 C   0  0  0  0  0  0
   13.4313    5.4053   22.1374 F   0  0  0  0  0  0
   11.4558    4.3823   23.0188 C   0  0  0  0  0  0
    8.7676   -2.5478   25.1194 C   0  0  0  0  0  0
    8.5021   -2.9277   26.4645 C   0  0  0  0  0  0
    8.9627   -4.1603   26.9687 C   0  0  0  0  0  0
    9.7515   -4.9644   26.1347 C   0  0  0  0  0  0
   10.0757   -4.6008   24.8826 N   0  0  0  0  0  0
    9.5867   -3.4443   24.3980 C   0  0  0  0  0  0
    6.0658   -3.6990   24.5765 C   0  0  0  0  0  0
    5.4570   -4.7576   25.2769 C   0  0  0  0  0  0
    2.0485   -6.1605   27.9674 H   0  0  0  0  0  0
    2.0681   -5.2928   26.4338 H   0  0  0  0  0  0
    2.3441   -4.4336   27.9438 H   0  0  0  0  0  0
    4.5610   -4.7877   29.2349 H   0  0  0  0  0  0
    5.7692   -5.8986   28.6066 H   0  0  0  0  0  0
    4.2622   -6.5188   29.2655 H   0  0  0  0  0  0
    3.6849   -7.7804   27.2069 H   0  0  0  0  0  0
    5.2530   -7.3601   26.5632 H   0  0  0  0  0  0
    3.7885   -7.0585   25.6140 H   0  0  0  0  0  0
    4.0684   -2.9501   27.8238 H   0  0  0  0  0  0
    5.1521   -1.1141   26.6149 H   0  0  0  0  0  0
    7.5750    0.2366   22.2353 H   0  0  0  0  0  0
    7.1753   -1.9019   21.0940 H   0  0  0  0  0  0
    5.4563   -1.7574   21.3011 H   0  0  0  0  0  0
    7.2128   -0.1742   19.4239 H   0  0  0  0  0  0
    5.6917   -0.9835   19.0379 H   0  0  0  0  0  0
    5.7947    1.7235   19.6140 H   0  0  0  0  0  0
    4.4133    0.7406   20.0826 H   0  0  0  0  0  0
    4.8901    1.1189   22.1539 H   0  0  0  0  0  0
    8.5296   -1.3173   23.4077 H   0  0  0  0  0  0
    7.8100    1.1559   23.8591 H   0  0  0  0  0  0
    8.1258    2.8625   25.6710 H   0  0  0  0  0  0
    9.7865    2.3169   25.7706 H   0  0  0  0  0  0
    8.6624    3.2326   23.0869 H   0  0  0  0  0  0
    9.1878    4.3848   24.2799 H   0  0  0  0  0  0
   10.9643    1.0834   23.7996 H   0  0  0  0  0  0
   13.2872    0.9440   22.9943 H   0  0  0  0  0  0
   14.4456    2.9825   22.1888 H   0  0  0  0  0  0
   10.9544    5.3394   23.0047 H   0  0  0  0  0  0
    7.8937   -2.2991   27.0970 H   0  0  0  0  0  0
    8.7201   -4.4900   27.9649 H   0  0  0  0  0  0
   10.1414   -5.9074   26.4812 H   0  0  0  0  0  0
    9.8440   -3.2348   23.3697 H   0  0  0  0  0  0
    6.6283   -3.9127   23.6780 H   0  0  0  0  0  0
    5.5789   -5.7545   24.8855 H   0  0  0  0  0  0
    6.2620    1.9544   21.7733 H   0  0  0  0  0  0
  1  2  1  0  0  0
  1 38  1  0  0  0
  1 39  1  0  0  0
  1 40  1  0  0  0
  2  3  1  0  0  0
  2  4  1  0  0  0
  2  5  1  0  0  0
  3 41  1  0  0  0
  3 42  1  0  0  0
  3 43  1  0  0  0
  4 44  1  0  0  0
  4 45  1  0  0  0
  4 46  1  0  0  0
  5  6  2  0  0  0
  5 37  1  0  0  0
  6  7  1  0  0  0
  6 47  1  0  0  0
  7  8  2  0  0  0
  7 48  1  0  0  0
  8  9  1  0  0  0
  8 36  1  0  0  0
  9 10  1  0  0  0
  9 17  1  0  0  0
 10 11  2  0  0  0
 10 12  1  0  0  0
 12 13  1  0  0  0
 12 16  1  0  0  0
 12 49  1  0  0  0
 13 14  1  0  0  0
 13 50  1  0  0  0
 13 51  1  0  0  0
 14 15  1  0  0  0
 14 52  1  0  0  0
 14 53  1  0  0  0
 15 16  1  0  0  0
 15 54  1  0  0  0
 15 55  1  0  0  0
 16 56  1  0  0  0
 16 73  1  0  0  0
 17 18  1  0  0  0
 17 30  1  0  0  0
 17 57  1  0  0  0
 18 19  2  0  0  0
 18 20  1  0  0  0
 20 21  1  0  0  0
 20 58  1  0  0  0
 21 22  1  0  0  0
 21 59  1  0  0  0
 21 60  1  0  0  0
 22 23  1  0  0  0
 22 61  1  0  0  0
 22 62  1  0  0  0
 23 24  2  0  0  0
 23 29  1  0  0  0
 24 25  1  0  0  0
 24 63  1  0  0  0
 25 26  2  0  0  0
 25 64  1  0  0  0
 26 27  1  0  0  0
 26 65  1  0  0  0
 27 28  1  0  0  0
 27 29  2  0  0  0
 29 66  1  0  0  0
 30 31  2  0  0  0
 30 35  1  0  0  0
 31 32  1  0  0  0
 31 67  1  0  0  0
 32 33  2  0  0  0
 32 68  1  0  0  0
 33 34  1  0  0  0
 33 69  1  0  0  0
 34 35  2  0  0  0
 35 70  1  0  0  0
 36 37  2  0  0  0
 36 71  1  0  0  0
 37 72  1  0  0  0
M  CHG  1  16   1
M  END
> <s_m_entry_id>
841

> <s_m_entry_name>
Compounds-withfrags-for-validation-docking.1904

> <s_m_Source_Path>
/home/rodolpho/data/melina/maestro/glide-dock_XP_5RGK_M-PRO_VALIDATION

> <s_m_Source_File>
glide-dock_XP_5RGK_M-PRO_VALIDATION_pv.maegz

> <i_m_Source_File_Index>
841

> <CID>
ALP-POS-02c6a514-51

> <Potency>
99.5

> <pIC50>
4.00218

> <Source>
Postera

> <smiles>
CC(C)(C)c1ccc(N(C(=O)C2CCCN2)C(C(=O)NCCc2cccc(F)c2)c2cccnc2)cc1

> <Outcome>
Inactive

> <StandardizerResult>
Clear Stereo (ID: ClearStereo)
Wedge Clean (ID: WedgeClean)
Mesomerize (ID: Mesomerize)
Tautomerize (ID: Tautomerize)
Aromatize (ID: Aromatize)
Add Explicit Hydrogens (ID: AddExplicitH)
Neutralize (ID: Neutralize)
Clean 2D (ID: Clean2D)

> <chiral flag>
0

> <version>
0

> <i_lp_mmshare_version>
41011

> <i_f3d_flags>
0

> <s_epik_input>
W0NIM11DKFtDSDNdKShbQ0gzXSljMVtjSF1bY0hdYyhbY0hdW2NIXTEpTihDKD1PKVtDQEhdMltDSDJdW0NIMl1bQ0gyXVtOSF0yKVtDQEhdKGMzW2NIXVtjSF1bY0hdbltjSF0zKUMoPU8pW05IXVtDSDJdW0NIMl1jNFtjSF1bY0hdW2NIXWMoRilbY0hdNA==

> <s_epik_cmdline>
J2VwaWtfcHl0aG9uJywgJy1waHQnLCAnMC41JywgJy1waCcsICc3LjQnLCAnLXRuJywgJzgnLCAnLW1hJywgJzIwMCcsICctaW1hZScsICc8aW5maWxlLm1hZT4nLCAnLW9tYWUnLCAnPG91dGZpbGUubWFlPic=

> <r_epik_Ionization_Penalty>
0.1422

> <r_epik_Ionization_Penalty_Charging>
0.1417

> <r_epik_Ionization_Penalty_Neutral>
4.0E-4

> <r_epik_State_Penalty>
0.131

> <r_epik_Charging_Adjusted_Penalty>
0.272745

> <i_epik_Tot_Q>
1

> <i_epik_Tot_abs_Q>
1

> <s_lp_Force_Field>
OPLS3

> <r_lp_Energy>
78.1936

> <b_lp_Chiralities_Consistent>
1

> <s_lp_Variant>
ligprep_COVID_compounds-withfrags-smallmolecules-forvalidation.maegz:13-1

> <i_glide_original_lignum>
117

> <s_i_glide_gridfile>
glide-grid_5RGK_M-PRO_COVID

> <i_i_glide_lignum>
117

> <r_i_docking_score>
-4.68939395626982

> <r_i_glide_ligand_efficiency>
-0.126740377196482

> <r_i_glide_ligand_efficiency_sa>
-0.422327053871637

> <r_i_glide_ligand_efficiency_ln>
-1.01701961412291

> <r_glide_XP_GScore>
-4.82042295626982

> <r_i_glide_gscore>
-4.82042295626982

> <r_i_glide_evdw>
-43.4615097045898

> <r_i_glide_ecoul>
-9.38200569152832

> <r_i_glide_energy>
-52.8435153961182

> <r_i_glide_einternal>
8.81823348999023

> <r_i_glide_emodel>
-74.8315391626845

> <r_glide_XP_HBond>
-0.906354635344493

> <i_i_glide_confnum>
1

> <i_i_glide_posenum>
1

> <r_i_glide_eff_state_penalty>
0.131029

> <i_glide_XP_PoseRank>
1

> <MW>
502.27

> <cLogP>
4.7

> <TPSA>
74.33

> <Rotatable Bonds>
8

> <Fraction sp3>
0.37

> <HBA>
4

> <HBD>
2

> <r_lp_tautomer_probability>


> <s_epik_Chemistry_Notes>


> <Structure ID>


> <Submission Fragments>


$$$$
ligprep_COVID_compounds-withfrags-smallmolecules-forvalidation.maegz:15
                    3D
 Structure written by MMmdl.
 73 77  0  0  1  0            999 V2000
    3.1806    2.7955   28.0318 C   0  0  0  0  0  0
    2.2522    3.4727   26.9932 C   0  0  0  0  0  0
    0.7931    3.0828   27.3524 C   0  0  0  0  0  0
    2.3661    5.0116   27.1298 C   0  0  0  0  0  0
    2.6694    3.0424   25.5635 C   0  0  0  0  0  0
    1.8705    2.2013   24.7711 C   0  0  0  0  0  0
    2.2749    1.8316   23.4920 C   0  0  0  0  0  0
    3.4912    2.2954   22.9874 C   0  0  0  0  0  0
    3.9025    1.9301   21.6843 N   0  0  0  0  0  0
    3.0279    1.9718   20.6178 C   0  0  0  0  0  0
    3.3997    1.7997   19.4525 O   0  0  0  0  0  0
    1.6123    2.2419   20.8357 C   0  0  0  0  0  0
    1.1279    3.4702   21.3077 C   0  0  0  0  0  0
   -0.2370    3.3663   21.3457 N   0  0  0  0  0  0
   -1.2169    4.2378   21.7446 C   0  0  0  0  0  0
   -2.5493    3.8420   21.6629 C   0  0  0  0  0  0
   -2.8696    2.5748   21.1788 C   0  0  0  0  0  0
   -1.8725    1.6858   20.7680 C   0  0  0  0  0  0
   -0.5254    2.0858   20.8517 C   0  0  0  0  0  0
    0.6142    1.4306   20.5175 N   0  0  0  0  0  0
    5.3585    1.6812   21.4120 C   0  0  1  0  0  0
    6.2079    1.3420   22.6694 C   0  0  0  0  0  0
    5.9704    0.3326   23.3356 O   0  0  0  0  0  0
    7.2032    2.2011   22.9505 N   0  0  0  0  0  0
    8.2023    1.9952   23.9955 C   0  0  0  0  0  0
    9.1427    3.2022   24.1835 C   0  0  0  0  0  0
   10.5451    2.9366   23.6578 C   0  0  0  0  0  0
   11.1151    1.6652   23.7831 C   0  0  0  0  0  0
   12.4038    1.4227   23.3055 C   0  0  0  0  0  0
   13.1289    2.4500   22.7012 C   0  0  0  0  0  0
   12.5661    3.7204   22.5752 C   0  0  0  0  0  0
   13.2697    4.7166   21.9915 F   0  0  0  0  0  0
   11.2774    3.9636   23.0524 C   0  0  0  0  0  0
    5.5806    0.7023   20.2685 C   0  0  0  0  0  0
    5.5705   -0.6911   20.4501 C   0  0  0  0  0  0
    5.7738   -1.5379   19.3596 C   0  0  0  0  0  0
    5.9911   -0.9661   18.1061 C   0  0  0  0  0  0
    6.0131    0.3750   17.9014 N   0  0  0  0  0  0
    5.8109    1.1828   18.9737 C   0  0  0  0  0  0
    4.2963    3.1360   23.7587 C   0  0  0  0  0  0
    3.8853    3.5033   25.0355 C   0  0  0  0  0  0
    2.9021    3.0601   29.0531 H   0  0  0  0  0  0
    4.2237    3.0864   27.9049 H   0  0  0  0  0  0
    3.1359    1.7080   27.9552 H   0  0  0  0  0  0
    0.6402    2.0031   27.3117 H   0  0  0  0  0  0
    0.0719    3.5478   26.6786 H   0  0  0  0  0  0
    0.5301    3.3998   28.3628 H   0  0  0  0  0  0
    2.0580    5.3510   28.1200 H   0  0  0  0  0  0
    1.7350    5.5232   26.4016 H   0  0  0  0  0  0
    3.3866    5.3657   26.9802 H   0  0  0  0  0  0
    0.9268    1.8177   25.1253 H   0  0  0  0  0  0
    1.6457    1.1831   22.9000 H   0  0  0  0  0  0
    1.6489    4.3633   21.6209 H   0  0  0  0  0  0
   -0.9033    5.2047   22.1101 H   0  0  0  0  0  0
   -3.3340    4.5162   21.9738 H   0  0  0  0  0  0
   -3.9058    2.2757   21.1185 H   0  0  0  0  0  0
   -2.1358    0.7080   20.3922 H   0  0  0  0  0  0
    5.7570    2.6362   21.0626 H   0  0  0  0  0  0
    7.2982    3.0371   22.3921 H   0  0  0  0  0  0
    7.6665    1.8054   24.9264 H   0  0  0  0  0  0
    8.7792    1.0900   23.7932 H   0  0  0  0  0  0
    8.7370    4.0818   23.6807 H   0  0  0  0  0  0
    9.2023    3.4703   25.2399 H   0  0  0  0  0  0
   10.5618    0.8641   24.2518 H   0  0  0  0  0  0
   12.8400    0.4395   23.4042 H   0  0  0  0  0  0
   14.1261    2.2612   22.3317 H   0  0  0  0  0  0
   10.8503    4.9511   22.9528 H   0  0  0  0  0  0
    5.3945   -1.1153   21.4280 H   0  0  0  0  0  0
    5.7616   -2.6106   19.4838 H   0  0  0  0  0  0
    6.1524   -1.5883   17.2381 H   0  0  0  0  0  0
    5.8291    2.2443   18.7733 H   0  0  0  0  0  0
    5.2359    3.5029   23.3710 H   0  0  0  0  0  0
    4.5248    4.1528   25.6143 H   0  0  0  0  0  0
  1  2  1  0  0  0
  1 42  1  0  0  0
  1 43  1  0  0  0
  1 44  1  0  0  0
  2  3  1  0  0  0
  2  4  1  0  0  0
  2  5  1  0  0  0
  3 45  1  0  0  0
  3 46  1  0  0  0
  3 47  1  0  0  0
  4 48  1  0  0  0
  4 49  1  0  0  0
  4 50  1  0  0  0
  5  6  2  0  0  0
  5 41  1  0  0  0
  6  7  1  0  0  0
  6 51  1  0  0  0
  7  8  2  0  0  0
  7 52  1  0  0  0
  8  9  1  0  0  0
  8 40  1  0  0  0
  9 10  1  0  0  0
  9 21  1  0  0  0
 10 11  2  0  0  0
 10 12  1  0  0  0
 12 13  2  0  0  0
 12 20  1  0  0  0
 13 14  1  0  0  0
 13 53  1  0  0  0
 14 15  1  0  0  0
 14 19  1  0  0  0
 15 16  2  0  0  0
 15 54  1  0  0  0
 16 17  1  0  0  0
 16 55  1  0  0  0
 17 18  2  0  0  0
 17 56  1  0  0  0
 18 19  1  0  0  0
 18 57  1  0  0  0
 19 20  2  0  0  0
 21 22  1  0  0  0
 21 34  1  0  0  0
 21 58  1  0  0  0
 22 23  2  0  0  0
 22 24  1  0  0  0
 24 25  1  0  0  0
 24 59  1  0  0  0
 25 26  1  0  0  0
 25 60  1  0  0  0
 25 61  1  0  0  0
 26 27  1  0  0  0
 26 62  1  0  0  0
 26 63  1  0  0  0
 27 28  2  0  0  0
 27 33  1  0  0  0
 28 29  1  0  0  0
 28 64  1  0  0  0
 29 30  2  0  0  0
 29 65  1  0  0  0
 30 31  1  0  0  0
 30 66  1  0  0  0
 31 32  1  0  0  0
 31 33  2  0  0  0
 33 67  1  0  0  0
 34 35  2  0  0  0
 34 39  1  0  0  0
 35 36  1  0  0  0
 35 68  1  0  0  0
 36 37  2  0  0  0
 36 69  1  0  0  0
 37 38  1  0  0  0
 37 70  1  0  0  0
 38 39  2  0  0  0
 39 71  1  0  0  0
 40 41  2  0  0  0
 40 72  1  0  0  0
 41 73  1  0  0  0
M  END
> <s_m_entry_id>
852

> <s_m_entry_name>
Compounds-withfrags-for-validation-docking.1902

> <s_m_Source_Path>
/home/rodolpho/data/melina/maestro/glide-dock_XP_5RGK_M-PRO_VALIDATION

> <s_m_Source_File>
glide-dock_XP_5RGK_M-PRO_VALIDATION_pv.maegz

> <i_m_Source_File_Index>
852

> <CID>
ALP-POS-02c6a514-45

> <Potency>
18.2039

> <pIC50>
4.73984

> <Source>
Postera

> <smiles>
CC(C)(C)c1ccc(N(C(=O)c2cn3ccccc3n2)C(C(=O)NCCc2cccc(F)c2)c2cccnc2)cc1

> <Outcome>
Inactive

> <StandardizerResult>
Clear Stereo (ID: ClearStereo)
Wedge Clean (ID: WedgeClean)
Mesomerize (ID: Mesomerize)
Tautomerize (ID: Tautomerize)
Aromatize (ID: Aromatize)
Add Explicit Hydrogens (ID: AddExplicitH)
Neutralize (ID: Neutralize)
Clean 2D (ID: Clean2D)

> <chiral flag>
0

> <version>
0

> <i_lp_mmshare_version>
41011

> <i_f3d_flags>
0

> <s_epik_input>
W2NIXTFbY0hdW2NIXVtjSF1jKG4xMiluYyhbY0hdMilDKD1PKU4oYyhbY0hdW2NIXTMpW2NIXVtjSF1jM0MoW0NIM10pKFtDSDNdKVtDSDNdKVtDQEhdKGM0W2NIXVtjSF1bY0hdbltjSF00KUMoPU8pW05IXVtDSDJdW0NIMl1jNVtjSF1bY0hdW2NIXWMoRilbY0hdNQ==

> <s_epik_cmdline>
J2VwaWtfcHl0aG9uJywgJy1waHQnLCAnMC41JywgJy1waCcsICc3LjQnLCAnLXRuJywgJzgnLCAnLW1hJywgJzIwMCcsICctaW1hZScsICc8aW5maWxlLm1hZT4nLCAnLW9tYWUnLCAnPG91dGZpbGUubWFlPic=

> <r_lp_tautomer_probability>
1.0

> <r_epik_Ionization_Penalty>
0.0065

> <r_epik_Ionization_Penalty_Charging>
0.006

> <r_epik_Ionization_Penalty_Neutral>
5.0E-4

> <r_epik_State_Penalty>
0.0

> <r_epik_Charging_Adjusted_Penalty>
0.00604208

> <i_epik_Tot_Q>
0

> <i_epik_Tot_abs_Q>
0

> <s_lp_Force_Field>
OPLS3

> <r_lp_Energy>
85.8582

> <b_lp_Chiralities_Consistent>
1

> <s_lp_Variant>
ligprep_COVID_compounds-withfrags-smallmolecules-forvalidation.maegz:15-1

> <i_glide_original_lignum>
123

> <s_i_glide_gridfile>
glide-grid_5RGK_M-PRO_COVID

> <i_i_glide_lignum>
123

> <r_i_docking_score>
-4.67957666605752

> <r_i_glide_ligand_efficiency>
-0.114136016245305

> <r_i_glide_ligand_efficiency_sa>
-0.393565778478487

> <r_i_glide_ligand_efficiency_ln>
-0.992787762621277

> <r_glide_XP_GScore>
-4.67957666605752

> <r_i_glide_gscore>
-4.67957666605752

> <r_i_glide_evdw>
-33.2043533325195

> <r_i_glide_ecoul>
-11.4373416900635

> <r_i_glide_energy>
-44.641695022583

> <r_i_glide_einternal>
8.93936729431152

> <r_i_glide_emodel>
-64.049580041626

> <r_glide_XP_HBond>
-0.958146293910223

> <i_i_glide_confnum>
1

> <i_i_glide_posenum>
25

> <r_i_glide_eff_state_penalty>
0.0

> <i_glide_XP_PoseRank>
1

> <MW>
549.25

> <cLogP>
5.91

> <TPSA>
79.6

> <Rotatable Bonds>
8

> <Fraction sp3>
0.21

> <HBA>
5

> <HBD>
1

> <s_epik_Chemistry_Notes>


> <Structure ID>


> <Submission Fragments>


$$$$
ligprep_COVID_compounds-withfrags-smallmolecules-forvalidation.maegz:6
                    3D
 Structure written by MMmdl.
 57 60  0  0  1  0            999 V2000
    5.0398   -6.1616   25.9929 C   0  0  0  0  0  0
    5.9822   -5.5041   27.0300 C   0  0  1  0  0  0
    7.1809   -4.8611   26.3122 C   0  0  0  0  0  0
    8.3871   -5.5589   26.1381 C   0  0  0  0  0  0
    9.4744   -4.9861   25.4931 C   0  0  0  0  0  0
    9.3762   -3.6942   25.0009 C   0  0  0  0  0  0
    8.1927   -2.9742   25.1461 C   0  0  0  0  0  0
    8.1923   -1.6973   24.6379 O   0  0  0  0  0  0
    7.0741   -3.5429   25.8054 C   0  0  0  0  0  0
    5.7628   -2.7949   25.8974 C   0  0  0  0  0  0
    5.4714   -1.9362   25.0618 O   0  0  0  0  0  0
    4.9182   -3.1311   27.0824 C   0  0  0  0  0  0
    5.2878   -4.3998   27.8974 C   0  0  1  0  0  0
    4.1356   -4.9237   28.8360 C   0  0  2  0  0  0
    2.7900   -4.1420   28.7729 C   0  0  2  0  0  0
    1.8662   -4.6923   27.6279 C   0  0  1  0  0  0
    1.2367   -6.0188   28.1618 N   0  3  0  0  0  0
    1.4369   -6.2405   29.6753 C   0  0  0  0  0  0
    1.6155   -7.2912   27.3706 C   0  0  0  0  0  0
    0.8254   -3.6563   27.1433 C   0  0  0  0  0  0
    0.1659   -4.1463   26.1464 O   0  5  0  0  0  0
    0.6599   -2.3870   27.6291 C   0  0  0  0  0  0
   -0.3947   -1.5031   27.1165 C   0  0  0  0  0  0
   -0.8131   -0.5320   27.9382 N   0  0  0  0  0  0
   -0.8778   -1.6155   25.9902 O   0  0  0  0  0  0
    1.5956   -1.9257   28.6859 C   0  0  0  0  0  0
    1.2797   -1.0361   29.4831 O   0  0  0  0  0  0
    3.0078   -2.6023   28.7082 C   0  0  2  0  0  0
    3.8985   -2.3138   27.4751 C   0  0  0  0  0  0
    3.6000   -1.1059   26.9039 O   0  0  0  0  0  0
    3.7012   -2.1399   29.8616 O   0  0  0  0  0  0
    4.5868   -5.0371   30.1754 O   0  0  0  0  0  0
    6.3724   -6.5595   27.8992 O   0  0  0  0  0  0
    4.5993   -5.4263   25.3189 H   0  0  0  0  0  0
    4.2181   -6.6986   26.4642 H   0  0  0  0  0  0
    5.5739   -6.8827   25.3723 H   0  0  0  0  0  0
    8.4923   -6.5689   26.5057 H   0  0  0  0  0  0
   10.3921   -5.5436   25.3762 H   0  0  0  0  0  0
   10.2274   -3.2527   24.5028 H   0  0  0  0  0  0
    7.3212   -1.2940   24.6399 H   0  0  0  0  0  0
    6.0694   -4.0179   28.5603 H   0  0  0  0  0  0
    3.9168   -5.9630   28.5932 H   0  0  0  0  0  0
    2.2685   -4.3271   29.7158 H   0  0  0  0  0  0
    2.4979   -4.9645   26.7798 H   0  0  0  0  0  0
    2.4890   -6.4604   29.8578 H   0  0  0  0  0  0
    0.8037   -7.0819   29.9580 H   0  0  0  0  0  0
    1.1218   -5.3334   30.1893 H   0  0  0  0  0  0
    2.6617   -7.5220   27.5749 H   0  0  0  0  0  0
    1.4520   -7.0952   26.3113 H   0  0  0  0  0  0
    0.9603   -8.0888   27.7221 H   0  0  0  0  0  0
   -0.4327   -0.4508   28.8693 H   0  0  0  0  0  0
   -1.5293    0.1114   27.6352 H   0  0  0  0  0  0
    4.2457   -0.9051   26.2229 H   0  0  0  0  0  0
    4.5277   -2.6226   29.9350 H   0  0  0  0  0  0
    4.9475   -4.1893   30.4469 H   0  0  0  0  0  0
    6.8426   -7.2185   27.3832 H   0  0  0  0  0  0
    0.2412   -5.9036   28.0324 H   0  0  0  0  0  0
  1  2  1  0  0  0
  1 34  1  0  0  0
  1 35  1  0  0  0
  1 36  1  0  0  0
  2  3  1  0  0  0
  2 33  1  0  0  0
  2 13  1  0  0  0
  3  4  2  0  0  0
  3  9  1  0  0  0
  4  5  1  0  0  0
  4 37  1  0  0  0
  5  6  2  0  0  0
  5 38  1  0  0  0
  6  7  1  0  0  0
  6 39  1  0  0  0
  7  8  1  0  0  0
  7  9  2  0  0  0
  8 40  1  0  0  0
  9 10  1  0  0  0
 10 11  2  0  0  0
 10 12  1  0  0  0
 12 13  1  0  0  0
 12 29  2  0  0  0
 13 14  1  0  0  0
 13 41  1  0  0  0
 14 15  1  0  0  0
 14 32  1  0  0  0
 14 42  1  0  0  0
 15 16  1  0  0  0
 15 28  1  0  0  0
 15 43  1  0  0  0
 16 17  1  0  0  0
 16 20  1  0  0  0
 16 44  1  0  0  0
 17 18  1  0  0  0
 17 19  1  0  0  0
 17 57  1  0  0  0
 18 45  1  0  0  0
 18 46  1  0  0  0
 18 47  1  0  0  0
 19 48  1  0  0  0
 19 49  1  0  0  0
 19 50  1  0  0  0
 20 21  1  0  0  0
 20 22  2  0  0  0
 22 23  1  0  0  0
 22 26  1  0  0  0
 23 24  1  0  0  0
 23 25  2  0  0  0
 24 51  1  0  0  0
 24 52  1  0  0  0
 26 27  2  0  0  0
 26 28  1  0  0  0
 28 29  1  0  0  0
 28 31  1  0  0  0
 29 30  1  0  0  0
 30 53  1  0  0  0
 31 54  1  0  0  0
 32 55  1  0  0  0
 33 56  1  0  0  0
M  CHG  2  17   1  21  -1
M  END
> <s_m_entry_id>
883

> <s_m_entry_name>
Compounds-withfrags-for-validation-docking.1911

> <s_m_Source_Path>
/home/rodolpho/data/melina/maestro/glide-dock_XP_5RGK_M-PRO_VALIDATION

> <s_m_Source_File>
glide-dock_XP_5RGK_M-PRO_VALIDATION_pv.maegz

> <i_m_Source_File_Index>
883

> <CID>
Oxitetracyclin

> <Potency>
15.15

> <pIC50>
4.81959

> <Source>
https://doi.org/10.1101/2020.03.23.004580

> <smiles>
C(C1(C2=C(C(=C(C(O[H])=C2C(O[H])=C2C1(C(C1(C(N(C([H])([H])[H])C([H])([H])[H])([H])C(=O)C(=C(N([H])[H])O[H])C(=O)C1(C2=O)O[H])[H])(O[H])[H])[H])[H])[H])[H])O[H])([H])([H])[H]

> <Outcome>
Inactive

> <StandardizerResult>
Clear Stereo (ID: ClearStereo)
Wedge Clean (ID: WedgeClean)
Mesomerize (ID: Mesomerize)
Tautomerize (ID: Tautomerize)
Aromatize (ID: Aromatize)
Add Explicit Hydrogens (ID: AddExplicitH)
Neutralize (ID: Neutralize)
Clean 2D (ID: Clean2D)

> <chiral flag>
0

> <version>
0

> <i_lp_mmshare_version>
41011

> <i_f3d_flags>
0

> <s_epik_input>
W09IXWMxW2NIXVtjSF1bY0hdYyhbQ0BAXTIoW0NIM10pW09IXSljMUMoPU8pQyg9QzNbT0hdKVtDQEhdMltDQEBIXShbT0hdKVtDQEBIXShbQ0BAXTM0W09IXSlbQ0BASF0oTihbQ0gzXSlbQ0gzXSlDKD1PKVtDQEhdKEM0PU8pQyg9TylbTkgyXQ==

> <s_epik_cmdline>
J2VwaWtfcHl0aG9uJywgJy1waHQnLCAnMC41JywgJy1waCcsICc3LjQnLCAnLXRuJywgJzgnLCAnLW1hJywgJzIwMCcsICctaW1hZScsICc8aW5maWxlLm1hZT4nLCAnLW9tYWUnLCAnPG91dGZpbGUubWFlPic=

> <r_epik_Ionization_Penalty>
0.6144

> <r_epik_Ionization_Penalty_Charging>
0.5087

> <r_epik_Ionization_Penalty_Neutral>
0.1057

> <r_epik_State_Penalty>
0.5157

> <r_epik_Charging_Adjusted_Penalty>
1.02439

> <i_epik_Tot_Q>
0

> <i_epik_Tot_abs_Q>
2

> <s_lp_Force_Field>
OPLS3

> <r_lp_Energy>
53.5132

> <b_lp_Chiralities_Consistent>
1

> <s_lp_Variant>
ligprep_COVID_compounds-withfrags-smallmolecules-forvalidation.maegz:6-35

> <i_glide_original_lignum>
87

> <s_i_glide_gridfile>
glide-grid_5RGK_M-PRO_COVID

> <i_i_glide_lignum>
87

> <r_i_docking_score>
-4.65921903045025

> <r_i_glide_ligand_efficiency>
-0.14118845546819

> <r_i_glide_ligand_efficiency_sa>
-0.452866817385487

> <r_i_glide_ligand_efficiency_ln>
-1.03618618822709

> <r_glide_XP_GScore>
-5.17492603045025

> <r_i_glide_gscore>
-5.17492603045025

> <r_i_glide_evdw>
-19.4688396453857

> <r_i_glide_ecoul>
-12.1424217224121

> <r_i_glide_energy>
-31.6112613677979

> <r_i_glide_einternal>
0.0

> <r_i_glide_emodel>
-35.7387715083441

> <r_glide_XP_HBond>
-2.4

> <i_i_glide_confnum>
1

> <i_i_glide_posenum>
18

> <r_i_glide_eff_state_penalty>
0.515707

> <i_glide_XP_PoseRank>
1

> <r_lp_tautomer_probability>


> <s_epik_Chemistry_Notes>


> <MW>


> <cLogP>


> <TPSA>


> <Rotatable Bonds>


> <Fraction sp3>


> <HBA>


> <HBD>


> <Structure ID>


> <Submission Fragments>


$$$$
ligprep_COVID_compounds-withfrags-smallmolecules-forvalidation.maegz:4
                    3D
 Structure written by MMmdl.
 93 97  0  0  1  0            999 V2000
   -0.8515    9.6475   19.0142 C   0  0  0  0  0  0
   -0.9502    8.1520   18.6561 C   0  0  0  0  0  0
   -1.9942    7.4474   19.5420 C   0  0  0  0  0  0
   -1.3648    8.0165   17.1787 C   0  0  0  0  0  0
    0.3464    7.4845   18.7920 N   0  0  0  0  0  0
    1.1677    7.4052   19.8546 C   0  0  0  0  0  0
    0.9290    7.9529   20.9295 O   0  0  0  0  0  0
    2.4760    6.5829   19.6916 C   0  0  2  0  0  0
    3.0391    6.6010   18.2364 C   0  0  0  0  0  0
    2.1808    5.8265   17.3337 N   0  0  0  0  0  0
    2.6448    5.9052   15.9522 C   0  0  0  0  0  0
    1.5264    5.6137   14.9702 C   0  0  0  0  0  0
    0.7749    6.6758   14.4272 C   0  0  0  0  0  0
   -0.2815    6.3800   13.5451 C   0  0  0  0  0  0
   -0.5492    5.0298   13.2515 C   0  0  0  0  0  0
    0.1597    4.0049   13.7713 N   0  0  0  0  0  0
    1.1835    4.2972   14.5951 C   0  0  0  0  0  0
    2.1679    4.4347   17.7975 C   0  0  0  0  0  0
    1.5847    4.3429   19.2210 C   0  0  0  0  0  0
    2.3748    5.1692   20.1708 N   0  3  2  0  0  0
    1.9736    4.9782   21.5974 C   0  0  0  0  0  0
    3.0265    4.2613   22.4694 C   0  0  2  0  0  0
    3.2181    2.7384   22.1947 C   0  0  0  0  0  0
    4.6749    2.1961   22.3211 C   0  0  2  0  0  0
    4.8343    0.6869   22.0468 C   0  0  0  0  0  0
    5.1408    0.3380   20.5893 C   0  0  0  0  0  0
    4.8520    1.2049   19.5030 C   0  0  0  0  0  0
    5.1785    0.8377   18.1849 C   0  0  0  0  0  0
    5.7415   -0.4229   17.9359 C   0  0  0  0  0  0
    5.9762   -1.3045   18.9973 C   0  0  0  0  0  0
    5.7270   -0.9132   20.3214 C   0  0  0  0  0  0
    5.4088    2.6358   23.5922 C   0  0  0  0  0  0
    4.7812    3.0370   24.5706 O   0  0  0  0  0  0
    6.7457    2.6182   23.5292 N   0  0  0  0  0  0
    7.6626    3.1283   24.5345 C   0  0  1  0  0  0
    8.9643    2.3728   24.4670 C   0  0  0  0  0  0
    9.1882    1.0318   24.8264 C   0  0  0  0  0  0
   10.4854    0.4984   24.6519 C   0  0  0  0  0  0
   11.5263    1.2993   24.1233 C   0  0  0  0  0  0
   11.2835    2.6448   23.7701 C   0  0  0  0  0  0
    9.9876    3.1602   23.9518 C   0  0  0  0  0  0
    9.5167    4.5561   23.6519 C   0  0  0  0  0  0
    8.0684    4.5943   24.2028 C   0  0  2  0  0  0
    8.0487    5.3630   25.3921 O   0  0  0  0  0  0
    2.5669    4.3986   23.7979 O   0  0  0  0  0  0
   -1.7886   10.1694   18.8089 H   0  0  0  0  0  0
   -0.0664   10.1477   18.4485 H   0  0  0  0  0  0
   -0.6396    9.7958   20.0736 H   0  0  0  0  0  0
   -1.7467    7.5236   20.6021 H   0  0  0  0  0  0
   -2.0749    6.3842   19.3024 H   0  0  0  0  0  0
   -2.9838    7.8872   19.4117 H   0  0  0  0  0  0
   -2.3496    8.4518   16.9988 H   0  0  0  0  0  0
   -1.4171    6.9719   16.8689 H   0  0  0  0  0  0
   -0.6564    8.5248   16.5194 H   0  0  0  0  0  0
    0.6764    6.9940   17.9681 H   0  0  0  0  0  0
    3.2233    7.0695   20.3200 H   0  0  0  0  0  0
    3.0783    7.6330   17.8863 H   0  0  0  0  0  0
    4.0643    6.2382   18.1892 H   0  0  0  0  0  0
    3.0060    6.9140   15.7444 H   0  0  0  0  0  0
    3.4910    5.2375   15.7821 H   0  0  0  0  0  0
    1.0018    7.7016   14.6854 H   0  0  0  0  0  0
   -0.8777    7.1690   13.1088 H   0  0  0  0  0  0
   -1.3549    4.7629   12.5863 H   0  0  0  0  0  0
    1.7270    3.4440   14.9742 H   0  0  0  0  0  0
    1.5515    3.8277   17.1406 H   0  0  0  0  0  0
    3.1742    4.0099   17.7709 H   0  0  0  0  0  0
    0.5397    4.6522   19.2235 H   0  0  0  0  0  0
    1.5999    3.3005   19.5341 H   0  0  0  0  0  0
    1.7987    5.9454   22.0650 H   0  0  0  0  0  0
    1.0187    4.4557   21.6610 H   0  0  0  0  0  0
    3.9737    4.8035   22.4336 H   0  0  0  0  0  0
    2.5466    2.1546   22.8291 H   0  0  0  0  0  0
    2.8855    2.5248   21.1839 H   0  0  0  0  0  0
    5.2778    2.6361   21.5479 H   0  0  0  0  0  0
    5.6580    0.2806   22.6345 H   0  0  0  0  0  0
    3.9675    0.1321   22.3784 H   0  0  0  0  0  0
    4.3969    2.1711   19.6437 H   0  0  0  0  0  0
    4.9797    1.5166   17.3714 H   0  0  0  0  0  0
    5.9709   -0.7420   16.9331 H   0  0  0  0  0  0
    6.3751   -2.2804   18.7895 H   0  0  0  0  0  0
    5.9470   -1.6012   21.1266 H   0  0  0  0  0  0
    7.1641    2.3262   22.6578 H   0  0  0  0  0  0
    7.2311    3.0375   25.5334 H   0  0  0  0  0  0
    8.3837    0.4289   25.2228 H   0  0  0  0  0  0
   10.6904   -0.5252   24.9251 H   0  0  0  0  0  0
   12.5143    0.8831   23.9965 H   0  0  0  0  0  0
   12.0754    3.2617   23.3675 H   0  0  0  0  0  0
   10.1709    5.3077   24.0969 H   0  0  0  0  0  0
    9.5106    4.7022   22.5732 H   0  0  0  0  0  0
    7.3877    5.0709   23.4951 H   0  0  0  0  0  0
    8.5916    4.9361   26.0396 H   0  0  0  0  0  0
    3.2430    4.0305   24.3593 H   0  0  0  0  0  0
    3.3360    4.8207   20.0673 H   0  0  0  0  0  0
  1  2  1  0  0  0
  1 46  1  0  0  0
  1 47  1  0  0  0
  1 48  1  0  0  0
  2  3  1  0  0  0
  2  4  1  0  0  0
  2  5  1  0  0  0
  3 49  1  0  0  0
  3 50  1  0  0  0
  3 51  1  0  0  0
  4 52  1  0  0  0
  4 53  1  0  0  0
  4 54  1  0  0  0
  5  6  1  0  0  0
  5 55  1  0  0  0
  6  7  2  0  0  0
  6  8  1  0  0  0
  8  9  1  0  0  0
  8 20  1  0  0  0
  8 56  1  0  0  0
  9 10  1  0  0  0
  9 57  1  0  0  0
  9 58  1  0  0  0
 10 11  1  0  0  0
 10 18  1  0  0  0
 11 12  1  0  0  0
 11 59  1  0  0  0
 11 60  1  0  0  0
 12 13  2  0  0  0
 12 17  1  0  0  0
 13 14  1  0  0  0
 13 61  1  0  0  0
 14 15  2  0  0  0
 14 62  1  0  0  0
 15 16  1  0  0  0
 15 63  1  0  0  0
 16 17  2  0  0  0
 17 64  1  0  0  0
 18 19  1  0  0  0
 18 65  1  0  0  0
 18 66  1  0  0  0
 19 20  1  0  0  0
 19 67  1  0  0  0
 19 68  1  0  0  0
 20 21  1  0  0  0
 20 93  1  0  0  0
 21 22  1  0  0  0
 21 69  1  0  0  0
 21 70  1  0  0  0
 22 23  1  0  0  0
 22 45  1  0  0  0
 22 71  1  0  0  0
 23 24  1  0  0  0
 23 72  1  0  0  0
 23 73  1  0  0  0
 24 25  1  0  0  0
 24 32  1  0  0  0
 24 74  1  0  0  0
 25 26  1  0  0  0
 25 75  1  0  0  0
 25 76  1  0  0  0
 26 27  2  0  0  0
 26 31  1  0  0  0
 27 28  1  0  0  0
 27 77  1  0  0  0
 28 29  2  0  0  0
 28 78  1  0  0  0
 29 30  1  0  0  0
 29 79  1  0  0  0
 30 31  2  0  0  0
 30 80  1  0  0  0
 31 81  1  0  0  0
 32 33  2  0  0  0
 32 34  1  0  0  0
 34 35  1  0  0  0
 34 82  1  0  0  0
 35 36  1  0  0  0
 35 43  1  0  0  0
 35 83  1  0  0  0
 36 37  2  0  0  0
 36 41  1  0  0  0
 37 38  1  0  0  0
 37 84  1  0  0  0
 38 39  2  0  0  0
 38 85  1  0  0  0
 39 40  1  0  0  0
 39 86  1  0  0  0
 40 41  2  0  0  0
 40 87  1  0  0  0
 41 42  1  0  0  0
 42 43  1  0  0  0
 42 88  1  0  0  0
 42 89  1  0  0  0
 43 44  1  0  0  0
 43 90  1  0  0  0
 44 91  1  0  0  0
 45 92  1  0  0  0
M  CHG  1  20   1
M  END
> <s_m_entry_id>
885

> <s_m_entry_name>
Compounds-withfrags-for-validation-docking.1913

> <s_m_Source_Path>
/home/rodolpho/data/melina/maestro/glide-dock_XP_5RGK_M-PRO_VALIDATION

> <s_m_Source_File>
glide-dock_XP_5RGK_M-PRO_VALIDATION_pv.maegz

> <i_m_Source_File_Index>
885

> <CID>
Indinavir

> <Potency>
43.13

> <pIC50>
4.36522

> <Source>
https://doi.org/10.1101/2020.03.23.004580

> <smiles>
C(C(C([H])([H])[H])(C([H])([H])[H])N(C(=O)C1(C([H])([H])N(C(C2=C([H])C([H])=C([H])N=C2[H])([H])[H])C([H])([H])C([H])([H])N1C(C(C(C(C(C1=C([H])C([H])=C([H])C([H])=C1[H])([H])[H])(C(=O)N(C1(C2=C(C(=C(C([H])=C2C([H])([H])C1(O[H])[H])[H])[H])[H])[H])[H])[H])([H])[H])(O[H])[H])([H])[H])[H])[H])([H])([H])[H]

> <Outcome>
Inactive

> <StandardizerResult>
Clear Stereo (ID: ClearStereo)
Wedge Clean (ID: WedgeClean)
Mesomerize (ID: Mesomerize)
Tautomerize (ID: Tautomerize)
Aromatize (ID: Aromatize)
Add Explicit Hydrogens (ID: AddExplicitH)
Neutralize (ID: Neutralize)
Clean 2D (ID: Clean2D)

> <chiral flag>
0

> <version>
0

> <i_lp_mmshare_version>
41011

> <i_f3d_flags>
0

> <s_epik_input>
W2NIXTFuW2NIXVtjSF1bY0hdYzFbQ0gyXU4oW0NIMl1bQ0BIXTJDKD1PKVtOSF1DKFtDSDNdKShbQ0gzXSlbQ0gzXSlbQ0gyXVtDSDJdTjJbQ0gyXVtDQEBIXShbT0hdKVtDSDJdW0NASF0oW0NIMl1jM1tjSF1bY0hdW2NIXVtjSF1bY0hdMylDKD1PKVtOSF1bQ0BASF00W0NAQEhdKFtPSF0pW0NIMl1jKGM0NSlbY0hdW2NIXVtjSF1bY0hdNQ==

> <s_epik_cmdline>
J2VwaWtfcHl0aG9uJywgJy1waHQnLCAnMC41JywgJy1waCcsICc3LjQnLCAnLXRuJywgJzgnLCAnLW1hJywgJzIwMCcsICctaW1hZScsICc8aW5maWxlLm1hZT4nLCAnLW9tYWUnLCAnPG91dGZpbGUubWFlPic=

> <r_epik_Ionization_Penalty>
0.3395

> <r_epik_Ionization_Penalty_Charging>
0.3352

> <r_epik_Ionization_Penalty_Neutral>
0.0044

> <r_epik_State_Penalty>
0.5191

> <r_epik_Charging_Adjusted_Penalty>
0.854238

> <i_epik_Tot_Q>
1

> <i_epik_Tot_abs_Q>
1

> <s_lp_Force_Field>
OPLS3

> <r_lp_Energy>
55.3413

> <b_lp_Chiralities_Consistent>
1

> <s_lp_Variant>
ligprep_COVID_compounds-withfrags-smallmolecules-forvalidation.maegz:4-26

> <i_glide_original_lignum>
45

> <s_i_glide_gridfile>
glide-grid_5RGK_M-PRO_COVID

> <i_i_glide_lignum>
45

> <r_i_docking_score>
-4.65727406420092

> <r_i_glide_ligand_efficiency>
-0.103494979204465

> <r_i_glide_ligand_efficiency_sa>
-0.368120598113596

> <r_i_glide_ligand_efficiency_ln>
-0.968920550197288

> <r_glide_XP_GScore>
-5.17634606420093

> <r_i_glide_gscore>
-5.17634606420093

> <r_i_glide_evdw>
-31.7549915313721

> <r_i_glide_ecoul>
-16.1899452209473

> <r_i_glide_energy>
-47.9449367523193

> <r_i_glide_einternal>
0.0

> <r_i_glide_emodel>
-71.3156533354352

> <r_glide_XP_HBond>
-1.40071799615

> <i_i_glide_confnum>
6

> <i_i_glide_posenum>
31

> <r_i_glide_eff_state_penalty>
0.519072

> <i_glide_XP_PoseRank>
1

> <r_lp_tautomer_probability>


> <s_epik_Chemistry_Notes>


> <MW>


> <cLogP>


> <TPSA>


> <Rotatable Bonds>


> <Fraction sp3>


> <HBA>


> <HBD>


> <Structure ID>


> <Submission Fragments>


$$$$
ligprep_COVID_compounds-withfrags-smallmolecules-forvalidation.maegz:88
                    3D
 Structure written by MMmdl.
 47 49  0  0  1  0            999 V2000
    5.9872   -1.5894   21.1801 C   0  0  0  0  0  0
    5.8691   -0.7339   19.9408 C   0  0  0  0  0  0
    5.9031   -1.3618   18.6913 C   0  0  0  0  0  0
    5.8599   -0.5582   17.5493 C   0  0  0  0  0  0
    5.6941    0.7733   17.5562 N   0  0  0  0  0  0
    5.5771    1.3641   18.7529 C   0  0  0  0  0  0
    5.7537    0.6767   19.9675 C   0  0  0  0  0  0
    6.0538    1.4337   21.1109 N   0  0  0  0  0  0
    5.4100    1.4196   22.2745 C   0  0  0  0  0  0
    4.2502    1.0370   22.4306 O   0  0  0  0  0  0
    6.2567    1.8930   23.4491 C   0  0  0  0  0  0
    7.1701    0.7600   23.9295 C   0  0  0  0  0  0
    8.5298    1.0066   24.1830 C   0  0  0  0  0  0
    9.3504   -0.0295   24.6618 C   0  0  0  0  0  0
   11.0186    0.2851   24.9298 Cl  0  0  0  0  0  0
    8.8241   -1.3170   24.8961 C   0  0  0  0  0  0
    7.4680   -1.5939   24.6093 C   0  0  0  0  0  0
    6.8595   -2.8587   24.7109 N   0  0  0  0  0  0
    7.4679   -4.0834   25.2313 C   0  0  2  0  0  0
    7.8498   -3.9936   26.7220 C   0  0  0  0  0  0
    9.2659   -4.5633   26.8381 C   0  0  0  0  0  0
    9.5194   -5.3285   25.5426 C   0  0  0  0  0  0
   10.8177   -5.3626   25.2506 F   0  0  0  0  0  0
    9.0594   -6.5633   25.7282 F   0  0  0  0  0  0
    8.7063   -4.5969   24.4682 C   0  0  1  0  0  0
    8.3746   -5.4896   23.4257 O   0  0  0  0  0  0
    6.6536   -0.5378   24.1640 C   0  0  0  0  0  0
    6.9730   -1.4807   21.6288 H   0  0  0  0  0  0
    5.8237   -2.6405   20.9588 H   0  0  0  0  0  0
    5.2210   -1.3151   21.8958 H   0  0  0  0  0  0
    5.9774   -2.4355   18.5977 H   0  0  0  0  0  0
    5.9748   -0.9838   16.5708 H   0  0  0  0  0  0
    5.5248    2.4385   18.7226 H   0  0  0  0  0  0
    6.9242    1.9478   21.0905 H   0  0  0  0  0  0
    6.8505    2.7555   23.1407 H   0  0  0  0  0  0
    5.6022    2.2450   24.2403 H   0  0  0  0  0  0
    8.9460    1.9887   24.0122 H   0  0  0  0  0  0
    9.4834   -2.0773   25.2762 H   0  0  0  0  0  0
    5.9280   -2.9573   24.3243 H   0  0  0  0  0  0
    6.7021   -4.8574   25.1573 H   0  0  0  0  0  0
    7.8133   -2.9764   27.1118 H   0  0  0  0  0  0
    7.1540   -4.5877   27.3150 H   0  0  0  0  0  0
    9.9746   -3.7483   26.9183 H   0  0  0  0  0  0
    9.3971   -5.1886   27.7213 H   0  0  0  0  0  0
    9.3002   -3.7915   24.0421 H   0  0  0  0  0  0
    9.1926   -5.8699   23.1292 H   0  0  0  0  0  0
    5.6031   -0.7301   24.0002 H   0  0  0  0  0  0
  1  2  1  0  0  0
  1 28  1  0  0  0
  1 29  1  0  0  0
  1 30  1  0  0  0
  2  3  2  0  0  0
  2  7  1  0  0  0
  3  4  1  0  0  0
  3 31  1  0  0  0
  4  5  2  0  0  0
  4 32  1  0  0  0
  5  6  1  0  0  0
  6  7  2  0  0  0
  6 33  1  0  0  0
  7  8  1  0  0  0
  8  9  1  0  0  0
  8 34  1  0  0  0
  9 10  2  0  0  0
  9 11  1  0  0  0
 11 12  1  0  0  0
 11 35  1  0  0  0
 11 36  1  0  0  0
 12 13  2  0  0  0
 12 27  1  0  0  0
 13 14  1  0  0  0
 13 37  1  0  0  0
 14 15  1  0  0  0
 14 16  2  0  0  0
 16 17  1  0  0  0
 16 38  1  0  0  0
 17 18  1  0  0  0
 17 27  2  0  0  0
 18 19  1  0  0  0
 18 39  1  0  0  0
 19 20  1  0  0  0
 19 25  1  0  0  0
 19 40  1  0  0  0
 20 21  1  0  0  0
 20 41  1  0  0  0
 20 42  1  0  0  0
 21 22  1  0  0  0
 21 43  1  0  0  0
 21 44  1  0  0  0
 22 23  1  0  0  0
 22 24  1  0  0  0
 22 25  1  0  0  0
 25 26  1  0  0  0
 25 45  1  0  0  0
 26 46  1  0  0  0
 27 47  1  0  0  0
M  END
> <s_m_entry_id>
901

> <s_m_entry_name>
Compounds-withfrags-for-validation-docking.1829

> <s_m_Source_Path>
/home/rodolpho/data/melina/maestro/glide-dock_XP_5RGK_M-PRO_VALIDATION

> <s_m_Source_File>
glide-dock_XP_5RGK_M-PRO_VALIDATION_pv.maegz

> <i_m_Source_File_Index>
901

> <CID>
MAT-POS-044491d2-2

> <Potency>
23.0318

> <pIC50>
4.63767

> <Source>
Postera

> <smiles>
Cc1ccncc1NC(=O)Cc1cc(Cl)cc(NC2CCC(F)(F)C2O)c1

> <Outcome>
Inactive

> <StandardizerResult>
Clear Stereo (ID: ClearStereo)
Wedge Clean (ID: WedgeClean)
Mesomerize (ID: Mesomerize)
Tautomerize (ID: Tautomerize)
Aromatize (ID: Aromatize)
Add Explicit Hydrogens (ID: AddExplicitH)
Neutralize (ID: Neutralize)
Clean 2D (ID: Clean2D)

> <chiral flag>
0

> <version>
0

> <i_lp_mmshare_version>
41011

> <i_f3d_flags>
0

> <s_epik_input>
W0NIM11jMVtjSF1bY0hdbltjSF1jMVtOSF1DKD1PKVtDSDJdYzJbY0hdYyhDbClbY0hdYyhbY0hdMilbTkhdW0NAQEhdKFtDQEBIXTNbT0hdKVtDSDJdW0NIMl1DMyhGKUY=

> <s_epik_cmdline>
J2VwaWtfcHl0aG9uJywgJy1waHQnLCAnMC41JywgJy1waCcsICc3LjQnLCAnLXRuJywgJzgnLCAnLW1hJywgJzIwMCcsICctaW1hZScsICc8aW5maWxlLm1hZT4nLCAnLW9tYWUnLCAnPG91dGZpbGUubWFlPic=

> <r_lp_tautomer_probability>
1.0

> <r_epik_Ionization_Penalty>
0.0032

> <r_epik_Ionization_Penalty_Charging>
0.0

> <r_epik_Ionization_Penalty_Neutral>
0.0032

> <r_epik_State_Penalty>
0.0

> <r_epik_Charging_Adjusted_Penalty>
0.0

> <i_epik_Tot_Q>
0

> <i_epik_Tot_abs_Q>
0

> <s_lp_Force_Field>
OPLS3

> <r_lp_Energy>
43.592

> <b_lp_Chiralities_Consistent>
1

> <s_lp_Variant>
ligprep_COVID_compounds-withfrags-smallmolecules-forvalidation.maegz:88-3

> <i_glide_original_lignum>
271

> <s_i_glide_gridfile>
glide-grid_5RGK_M-PRO_COVID

> <i_i_glide_lignum>
271

> <r_i_docking_score>
-4.64532542178676

> <r_i_glide_ligand_efficiency>
-0.172049089695806

> <r_i_glide_ligand_efficiency_sa>
-0.516147268520372

> <r_i_glide_ligand_efficiency_ln>
-1.081355174017

> <r_glide_XP_GScore>
-4.64532542178676

> <r_i_glide_gscore>
-4.64532542178676

> <r_i_glide_evdw>
-30.5484714508057

> <r_i_glide_ecoul>
-5.41971015930176

> <r_i_glide_energy>
-35.9681816101074

> <r_i_glide_einternal>
1.73523211479187

> <r_i_glide_emodel>
-60.6980428254974

> <r_glide_XP_HBond>
-0.447511450590566

> <i_i_glide_confnum>
1

> <i_i_glide_posenum>
29

> <r_i_glide_eff_state_penalty>
0.0

> <i_glide_XP_PoseRank>
1

> <MW>
395.12

> <cLogP>
3.8

> <TPSA>
74.25

> <Rotatable Bonds>
5

> <Fraction sp3>
0.37

> <HBA>
4

> <HBD>
3

> <s_epik_Chemistry_Notes>


> <Structure ID>


> <Submission Fragments>


$$$$
ligprep_COVID_compounds-withfrags-smallmolecules-forvalidation.maegz:10
                    3D
 Structure written by MMmdl.
 32 34  0  0  1  0            999 V2000
    4.5229    2.4939   22.9294 N   0  0  0  0  0  0
    5.1191    1.2951   22.5238 C   0  0  0  0  0  0
    5.6346    0.4474   23.3718 N   0  0  0  0  0  0
    6.1497   -0.5874   22.6474 N   0  0  0  0  0  0
    6.7832   -1.6826   23.3449 C   0  0  0  0  0  0
    7.1732   -2.6421   22.6785 O   0  0  0  0  0  0
    6.9835   -1.6190   24.8719 C   0  0  0  0  0  0
    7.5064   -2.9240   25.4714 C   0  0  0  0  0  0
    8.7824   -3.4265   25.1264 C   0  0  0  0  0  0
    9.2398   -4.6468   25.6608 C   0  0  0  0  0  0
    8.4336   -5.3611   26.5687 C   0  0  0  0  0  0
    7.1811   -4.8467   26.9515 C   0  0  0  0  0  0
    6.2123   -5.6965   28.0984 Cl  0  0  0  0  0  0
    6.7161   -3.6373   26.3997 C   0  0  0  0  0  0
    5.9607   -0.3818   21.2783 C   0  0  0  0  0  0
    6.3177   -1.1071   20.1309 C   0  0  0  0  0  0
    5.9837   -0.6090   18.8625 C   0  0  0  0  0  0
    6.3742   -1.2846   17.7625 F   0  0  0  0  0  0
    5.2627    0.5925   18.7380 C   0  0  0  0  0  0
    4.8959    1.3115   19.8906 C   0  0  0  0  0  0
    5.2580    0.8525   21.1780 C   0  0  0  0  0  0
    4.6463    3.2556   22.2573 H   0  0  0  0  0  0
    4.6995    2.7991   23.8746 H   0  0  0  0  0  0
    7.6815   -0.8141   25.1019 H   0  0  0  0  0  0
    6.0356   -1.3569   25.3438 H   0  0  0  0  0  0
    9.4029   -2.8916   24.4236 H   0  0  0  0  0  0
   10.2052   -5.0418   25.3689 H   0  0  0  0  0  0
    8.7747   -6.3030   26.9726 H   0  0  0  0  0  0
    5.7461   -3.2584   26.6902 H   0  0  0  0  0  0
    6.8538   -2.0400   20.2189 H   0  0  0  0  0  0
    4.9903    0.9650   17.7607 H   0  0  0  0  0  0
    4.3499    2.2364   19.7921 H   0  0  0  0  0  0
  1  2  1  0  0  0
  1 22  1  0  0  0
  1 23  1  0  0  0
  2  3  2  0  0  0
  2 21  1  0  0  0
  3  4  1  0  0  0
  4  5  1  0  0  0
  4 15  1  0  0  0
  5  6  2  0  0  0
  5  7  1  0  0  0
  7  8  1  0  0  0
  7 24  1  0  0  0
  7 25  1  0  0  0
  8  9  2  0  0  0
  8 14  1  0  0  0
  9 10  1  0  0  0
  9 26  1  0  0  0
 10 11  2  0  0  0
 10 27  1  0  0  0
 11 12  1  0  0  0
 11 28  1  0  0  0
 12 13  1  0  0  0
 12 14  2  0  0  0
 14 29  1  0  0  0
 15 16  2  0  0  0
 15 21  1  0  0  0
 16 17  1  0  0  0
 16 30  1  0  0  0
 17 18  1  0  0  0
 17 19  2  0  0  0
 19 20  1  0  0  0
 19 31  1  0  0  0
 20 21  2  0  0  0
 20 32  1  0  0  0
M  END
> <s_m_entry_id>
923

> <s_m_entry_name>
Compounds-withfrags-for-validation-docking.1907

> <s_m_Source_Path>
/home/rodolpho/data/melina/maestro/glide-dock_XP_5RGK_M-PRO_VALIDATION

> <s_m_Source_File>
glide-dock_XP_5RGK_M-PRO_VALIDATION_pv.maegz

> <i_m_Source_File_Index>
923

> <CID>
ALP-POS-902f21bb-1

> <Potency>
99.5

> <pIC50>
4.00218

> <Source>
Postera

> <smiles>
Nc1nn(C(=O)Cc2cccc(Cl)c2)c2cc(F)ccc12

> <Outcome>
Inactive

> <StandardizerResult>
Clear Stereo (ID: ClearStereo)
Wedge Clean (ID: WedgeClean)
Mesomerize (ID: Mesomerize)
Tautomerize (ID: Tautomerize)
Aromatize (ID: Aromatize)
Add Explicit Hydrogens (ID: AddExplicitH)
Neutralize (ID: Neutralize)
Clean 2D (ID: Clean2D)

> <chiral flag>
0

> <version>
0

> <i_lp_mmshare_version>
41011

> <i_f3d_flags>
0

> <s_epik_input>
W2NIXTFjKEYpW2NIXVtjSF1jKGMxMiljKFtOSDJdKW5uMkMoPU8pW0NIMl1jM1tjSF1bY0hdW2NIXWMoQ2wpW2NIXTM=

> <s_epik_cmdline>
J2VwaWtfcHl0aG9uJywgJy1waHQnLCAnMC41JywgJy1waCcsICc3LjQnLCAnLXRuJywgJzgnLCAnLW1hJywgJzIwMCcsICctaW1hZScsICc8aW5maWxlLm1hZT4nLCAnLW9tYWUnLCAnPG91dGZpbGUubWFlPic=

> <r_lp_tautomer_probability>
1.0

> <r_epik_Ionization_Penalty>
4.0E-4

> <r_epik_Ionization_Penalty_Charging>
0.0

> <r_epik_Ionization_Penalty_Neutral>
4.0E-4

> <r_epik_State_Penalty>
0.0

> <r_epik_Charging_Adjusted_Penalty>
0.0

> <i_epik_Tot_Q>
0

> <i_epik_Tot_abs_Q>
0

> <s_lp_Force_Field>
OPLS3

> <r_lp_Energy>
20.8471

> <b_lp_Chiralities_Consistent>
1

> <s_lp_Variant>
ligprep_COVID_compounds-withfrags-smallmolecules-forvalidation.maegz:10-1

> <i_glide_original_lignum>
112

> <s_i_glide_gridfile>
glide-grid_5RGK_M-PRO_COVID

> <i_i_glide_lignum>
112

> <r_i_docking_score>
-4.63078208091811

> <r_i_glide_ligand_efficiency>
-0.220513432424672

> <r_i_glide_ligand_efficiency_sa>
-0.608379839315803

> <r_i_glide_ligand_efficiency_ln>
-1.14495151213073

> <r_glide_XP_GScore>
-4.63078208091811

> <r_i_glide_gscore>
-4.63078208091811

> <r_i_glide_evdw>
-31.1523056030273

> <r_i_glide_ecoul>
-7.47234439849854

> <r_i_glide_energy>
-38.6246500015259

> <r_i_glide_einternal>
0.474796951784874

> <r_i_glide_emodel>
-51.491138458252

> <r_glide_XP_HBond>
-0.35

> <i_i_glide_confnum>
1

> <i_i_glide_posenum>
1

> <r_i_glide_eff_state_penalty>
0.0

> <i_glide_XP_PoseRank>
1

> <MW>
303.06

> <cLogP>
3.29

> <TPSA>
60.91

> <Rotatable Bonds>
2

> <Fraction sp3>
0.07

> <HBA>
4

> <HBD>
1

> <s_epik_Chemistry_Notes>


> <Structure ID>


> <Submission Fragments>


$$$$
ligprep_COVID_compounds-withfrags-smallmolecules-forvalidation.maegz:48
                    3D
 Structure written by MMmdl.
 37 40  0  0  1  0            999 V2000
    4.5282    2.6334   22.9708 N   0  0  0  0  0  0
    5.0584    1.3855   22.6172 C   0  0  0  0  0  0
    5.4796    0.5347   23.5089 N   0  0  0  0  0  0
    5.9830   -0.5447   22.8444 N   0  0  0  0  0  0
    6.5043   -1.6624   23.6118 C   0  0  0  0  0  0
    7.0626   -2.5566   22.9725 O   0  0  0  0  0  0
    6.3165   -1.7475   25.1594 C   0  0  1  0  0  0
    4.8219   -1.7638   25.5500 C   0  0  0  0  0  0
    4.6417   -2.1012   27.0278 C   0  0  0  0  0  0
    5.0912   -3.4226   27.2718 O   0  0  0  0  0  0
    6.3467   -3.7281   26.8034 C   0  0  0  0  0  0
    6.9586   -4.8809   27.3305 C   0  0  0  0  0  0
    8.2374   -5.2659   26.9013 C   0  0  0  0  0  0
    8.9157   -4.4789   25.9590 C   0  0  0  0  0  0
   10.4470   -4.9635   25.3712 Cl  0  0  0  0  0  0
    8.3342   -3.3077   25.4544 C   0  0  0  0  0  0
    7.0179   -2.9489   25.8171 C   0  0  0  0  0  0
    5.8914   -0.3592   21.4551 C   0  0  0  0  0  0
    6.2743   -1.1232   20.3319 C   0  0  0  0  0  0
    5.9884   -0.6551   19.0349 C   0  0  0  0  0  0
    6.3746   -1.3634   17.9499 F   0  0  0  0  0  0
    5.2978    0.5563   18.8606 C   0  0  0  0  0  0
    4.9158    1.3153   19.9816 C   0  0  0  0  0  0
    5.2271    0.8914   21.2931 C   0  0  0  0  0  0
    4.7158    3.3628   22.2758 H   0  0  0  0  0  0
    4.6985    2.9733   23.9059 H   0  0  0  0  0  0
    6.7826   -0.8598   25.5863 H   0  0  0  0  0  0
    4.3324   -0.8167   25.3382 H   0  0  0  0  0  0
    4.2984   -2.5202   24.9720 H   0  0  0  0  0  0
    5.1825   -1.3975   27.6625 H   0  0  0  0  0  0
    3.5879   -2.0373   27.3045 H   0  0  0  0  0  0
    6.4365   -5.4832   28.0604 H   0  0  0  0  0  0
    8.6921   -6.1640   27.2882 H   0  0  0  0  0  0
    8.8860   -2.7263   24.7314 H   0  0  0  0  0  0
    6.7828   -2.0666   20.4603 H   0  0  0  0  0  0
    5.0575    0.9029   17.8652 H   0  0  0  0  0  0
    4.3798    2.2365   19.8348 H   0  0  0  0  0  0
  1  2  1  0  0  0
  1 25  1  0  0  0
  1 26  1  0  0  0
  2  3  2  0  0  0
  2 24  1  0  0  0
  3  4  1  0  0  0
  4  5  1  0  0  0
  4 18  1  0  0  0
  5  6  2  0  0  0
  5  7  1  0  0  0
  7  8  1  0  0  0
  7 17  1  0  0  0
  7 27  1  0  0  0
  8  9  1  0  0  0
  8 28  1  0  0  0
  8 29  1  0  0  0
  9 10  1  0  0  0
  9 30  1  0  0  0
  9 31  1  0  0  0
 10 11  1  0  0  0
 11 12  2  0  0  0
 11 17  1  0  0  0
 12 13  1  0  0  0
 12 32  1  0  0  0
 13 14  2  0  0  0
 13 33  1  0  0  0
 14 15  1  0  0  0
 14 16  1  0  0  0
 16 17  2  0  0  0
 16 34  1  0  0  0
 18 19  2  0  0  0
 18 24  1  0  0  0
 19 20  1  0  0  0
 19 35  1  0  0  0
 20 21  1  0  0  0
 20 22  2  0  0  0
 22 23  1  0  0  0
 22 36  1  0  0  0
 23 24  2  0  0  0
 23 37  1  0  0  0
M  END
> <s_m_entry_id>
941

> <s_m_entry_name>
Compounds-withfrags-for-validation-docking.1869

> <s_m_Source_Path>
/home/rodolpho/data/melina/maestro/glide-dock_XP_5RGK_M-PRO_VALIDATION

> <s_m_Source_File>
glide-dock_XP_5RGK_M-PRO_VALIDATION_pv.maegz

> <i_m_Source_File_Index>
941

> <CID>
ALP-POS-e2fddb0f-2

> <Potency>
99.5

> <pIC50>
4.00218

> <Source>
Postera

> <smiles>
Nc1nn(C(=O)C2CCOc3ccc(Cl)cc32)c2cc(F)ccc12

> <Outcome>
Inactive

> <StandardizerResult>
Clear Stereo (ID: ClearStereo)
Wedge Clean (ID: WedgeClean)
Mesomerize (ID: Mesomerize)
Tautomerize (ID: Tautomerize)
Aromatize (ID: Aromatize)
Add Explicit Hydrogens (ID: AddExplicitH)
Neutralize (ID: Neutralize)
Clean 2D (ID: Clean2D)

> <chiral flag>
0

> <version>
0

> <i_lp_mmshare_version>
41011

> <i_f3d_flags>
0

> <s_epik_input>
W2NIXTFjKEYpW2NIXVtjSF1jKGMxMiljKFtOSDJdKW5uMkMoPU8pW0NAQEhdKFtDSDJdW0NIMl1PMyljKGMzNClbY0hdYyhDbClbY0hdW2NIXTQ=

> <s_epik_cmdline>
J2VwaWtfcHl0aG9uJywgJy1waHQnLCAnMC41JywgJy1waCcsICc3LjQnLCAnLXRuJywgJzgnLCAnLW1hJywgJzIwMCcsICctaW1hZScsICc8aW5maWxlLm1hZT4nLCAnLW9tYWUnLCAnPG91dGZpbGUubWFlPic=

> <r_lp_tautomer_probability>
1.0

> <r_epik_Ionization_Penalty>
4.0E-4

> <r_epik_Ionization_Penalty_Charging>
0.0

> <r_epik_Ionization_Penalty_Neutral>
4.0E-4

> <r_epik_State_Penalty>
0.0

> <r_epik_Charging_Adjusted_Penalty>
0.0

> <i_epik_Tot_Q>
0

> <i_epik_Tot_abs_Q>
0

> <s_lp_Force_Field>
OPLS3

> <r_lp_Energy>
29.2869

> <b_lp_Chiralities_Consistent>
1

> <s_lp_Variant>
ligprep_COVID_compounds-withfrags-smallmolecules-forvalidation.maegz:48-2

> <i_glide_original_lignum>
214

> <s_i_glide_gridfile>
glide-grid_5RGK_M-PRO_COVID

> <i_i_glide_lignum>
214

> <r_i_docking_score>
-4.61541708893126

> <r_i_glide_ligand_efficiency>
-0.192309045372136

> <r_i_glide_ligand_efficiency_sa>
-0.554715275520743

> <r_i_glide_ligand_efficiency_ln>
-1.10468109707119

> <r_glide_XP_GScore>
-4.61541708893126

> <r_i_glide_gscore>
-4.61541708893126

> <r_i_glide_evdw>
-28.7425155639648

> <r_i_glide_ecoul>
-8.04057788848877

> <r_i_glide_energy>
-36.7830934524536

> <r_i_glide_einternal>
1.34008169174194

> <r_i_glide_emodel>
-47.6934005625112

> <r_glide_XP_HBond>
-0.441569216640516

> <i_i_glide_confnum>
1

> <i_i_glide_posenum>
1

> <r_i_glide_eff_state_penalty>
0.0

> <i_glide_XP_PoseRank>
1

> <MW>
345.07

> <cLogP>
3.62

> <TPSA>
70.14

> <Rotatable Bonds>
1

> <Fraction sp3>
0.18

> <HBA>
5

> <HBD>
1

> <s_epik_Chemistry_Notes>


> <Structure ID>


> <Submission Fragments>


$$$$
ligprep_COVID_compounds-withfrags-smallmolecules-forvalidation.maegz:59
                    3D
 Structure written by MMmdl.
 40 43  0  0  1  0            999 V2000
    5.4151    1.4699   17.9064 C   0  0  0  0  0  0
    4.8581    1.4373   19.2163 O   0  0  0  0  0  0
    5.4365    0.6282   20.1756 C   0  0  0  0  0  0
    5.7586   -0.6732   19.7723 C   0  0  0  0  0  0
    6.3495   -1.5983   20.6375 C   0  0  0  0  0  0
    6.6223   -1.1988   21.9540 C   0  0  0  0  0  0
    7.1891   -1.7619   23.1370 C   0  0  0  0  0  0
    7.6617   -3.0551   23.2228 N   0  0  0  0  0  0
    8.8080   -3.3871   23.8541 C   0  0  0  0  0  0
    9.7711   -2.6240   23.9693 O   0  0  0  0  0  0
    8.8645   -4.8119   24.4608 C   0  0  1  0  0  0
    9.8824   -4.8987   25.6232 C   0  0  0  0  0  0
    9.2789   -4.4497   26.9674 C   0  0  0  0  0  0
    8.0813   -5.1515   27.3067 O   0  0  0  0  0  0
    7.1651   -5.3520   26.2903 C   0  0  0  0  0  0
    5.8945   -5.7455   26.7139 C   0  0  0  0  0  0
    4.8908   -5.9924   25.7806 C   0  0  0  0  0  0
    5.1587   -5.8544   24.4206 C   0  0  0  0  0  0
    3.9195   -6.1624   23.2594 Cl  0  0  0  0  0  0
    6.4313   -5.4711   23.9978 C   0  0  0  0  0  0
    7.4586   -5.2118   24.9172 C   0  0  0  0  0  0
    7.1950   -0.9020   24.1369 N   0  0  0  0  0  0
    6.6363    0.2910   23.6576 O   0  0  0  0  0  0
    6.2952    0.1054   22.3499 C   0  0  0  0  0  0
    5.7055    1.0410   21.4934 C   0  0  0  0  0  0
    4.8349    2.1533   17.2865 H   0  0  0  0  0  0
    5.3828    0.4876   17.4326 H   0  0  0  0  0  0
    6.4451    1.8299   17.9180 H   0  0  0  0  0  0
    5.5455   -0.9759   18.7574 H   0  0  0  0  0  0
    6.5882   -2.5950   20.2961 H   0  0  0  0  0  0
    7.1154   -3.7785   22.7795 H   0  0  0  0  0  0
    9.1876   -5.4795   23.6590 H   0  0  0  0  0  0
   10.2077   -5.9349   25.7252 H   0  0  0  0  0  0
   10.7886   -4.3295   25.4072 H   0  0  0  0  0  0
   10.0022   -4.6011   27.7690 H   0  0  0  0  0  0
    9.0642   -3.3808   26.9563 H   0  0  0  0  0  0
    5.6837   -5.8573   27.7676 H   0  0  0  0  0  0
    3.9082   -6.2926   26.1143 H   0  0  0  0  0  0
    6.6274   -5.3745   22.9395 H   0  0  0  0  0  0
    5.4736    2.0336   21.8479 H   0  0  0  0  0  0
  1  2  1  0  0  0
  1 26  1  0  0  0
  1 27  1  0  0  0
  1 28  1  0  0  0
  2  3  1  0  0  0
  3  4  2  0  0  0
  3 25  1  0  0  0
  4  5  1  0  0  0
  4 29  1  0  0  0
  5  6  2  0  0  0
  5 30  1  0  0  0
  6  7  1  0  0  0
  6 24  1  0  0  0
  7  8  1  0  0  0
  7 22  2  0  0  0
  8  9  1  0  0  0
  8 31  1  0  0  0
  9 10  2  0  0  0
  9 11  1  0  0  0
 11 12  1  0  0  0
 11 21  1  0  0  0
 11 32  1  0  0  0
 12 13  1  0  0  0
 12 33  1  0  0  0
 12 34  1  0  0  0
 13 14  1  0  0  0
 13 35  1  0  0  0
 13 36  1  0  0  0
 14 15  1  0  0  0
 15 16  2  0  0  0
 15 21  1  0  0  0
 16 17  1  0  0  0
 16 37  1  0  0  0
 17 18  2  0  0  0
 17 38  1  0  0  0
 18 19  1  0  0  0
 18 20  1  0  0  0
 20 21  2  0  0  0
 20 39  1  0  0  0
 22 23  1  0  0  0
 23 24  1  0  0  0
 24 25  2  0  0  0
 25 40  1  0  0  0
M  END
> <s_m_entry_id>
944

> <s_m_entry_name>
Compounds-withfrags-for-validation-docking.1858

> <s_m_Source_Path>
/home/rodolpho/data/melina/maestro/glide-dock_XP_5RGK_M-PRO_VALIDATION

> <s_m_Source_File>
glide-dock_XP_5RGK_M-PRO_VALIDATION_pv.maegz

> <i_m_Source_File_Index>
944

> <CID>
JAG-UCB-52b62a6f-10

> <Potency>
61.5022

> <pIC50>
4.21111

> <Source>
Postera

> <smiles>
COc1ccc2c(NC(=O)C3CCOc4ccc(Cl)cc43)noc2c1

> <Outcome>
Inactive

> <StandardizerResult>
Clear Stereo (ID: ClearStereo)
Wedge Clean (ID: WedgeClean)
Mesomerize (ID: Mesomerize)
Tautomerize (ID: Tautomerize)
Aromatize (ID: Aromatize)
Add Explicit Hydrogens (ID: AddExplicitH)
Neutralize (ID: Neutralize)
Clean 2D (ID: Clean2D)

> <chiral flag>
0

> <version>
0

> <i_lp_mmshare_version>
41011

> <i_f3d_flags>
0

> <s_epik_input>
W0NIM11PYyhbY0hdW2NIXTEpW2NIXWMoYzEyKW9uYzJbTkhdQyg9TylbQ0BASF0oW0NIMl1bQ0gyXU8zKWMoYzM0KVtjSF1jKENsKVtjSF1bY0hdNA==

> <s_epik_cmdline>
J2VwaWtfcHl0aG9uJywgJy1waHQnLCAnMC41JywgJy1waCcsICc3LjQnLCAnLXRuJywgJzgnLCAnLW1hJywgJzIwMCcsICctaW1hZScsICc8aW5maWxlLm1hZT4nLCAnLW9tYWUnLCAnPG91dGZpbGUubWFlPic=

> <r_lp_tautomer_probability>
1.0

> <r_epik_Ionization_Penalty>
4.0E-4

> <r_epik_Ionization_Penalty_Charging>
0.0

> <r_epik_Ionization_Penalty_Neutral>
4.0E-4

> <r_epik_State_Penalty>
0.0

> <r_epik_Charging_Adjusted_Penalty>
0.0

> <i_epik_Tot_Q>
0

> <i_epik_Tot_abs_Q>
0

> <s_lp_Force_Field>
OPLS3

> <r_lp_Energy>
34.9123

> <b_lp_Chiralities_Consistent>
1

> <s_lp_Variant>
ligprep_COVID_compounds-withfrags-smallmolecules-forvalidation.maegz:59-2

> <i_glide_original_lignum>
230

> <s_i_glide_gridfile>
glide-grid_5RGK_M-PRO_COVID

> <i_i_glide_lignum>
230

> <r_i_docking_score>
-4.61363038930755

> <r_i_glide_ligand_efficiency>
-0.184545215572302

> <r_i_glide_ligand_efficiency_sa>
-0.539613483256745

> <r_i_glide_ligand_efficiency_ln>
-1.09356866161181

> <r_glide_XP_GScore>
-4.61363038930755

> <r_i_glide_gscore>
-4.61363038930755

> <r_i_glide_evdw>
-32.8765830993652

> <r_i_glide_ecoul>
-3.52126407623291

> <r_i_glide_energy>
-36.3978471755981

> <r_i_glide_einternal>
2.99181628227234

> <r_i_glide_emodel>
-49.597303913803

> <r_glide_XP_HBond>
-0.25647599762775

> <i_i_glide_confnum>
1

> <i_i_glide_posenum>
25

> <r_i_glide_eff_state_penalty>
0.0

> <i_glide_XP_PoseRank>
1

> <MW>
358.07

> <cLogP>
3.99

> <TPSA>
73.59

> <Rotatable Bonds>
3

> <Fraction sp3>
0.22

> <HBA>
5

> <HBD>
1

> <s_epik_Chemistry_Notes>


> <Structure ID>


> <Submission Fragments>


$$$$
ligprep_COVID_compounds-withfrags-smallmolecules-forvalidation.maegz:29
                    3D
 Structure written by MMmdl.
 71 75  0  0  1  0            999 V2000
    3.1879    2.2803   24.9796 O   0  0  0  0  0  0
    3.8469    3.1783   24.4538 C   0  0  0  0  0  0
    4.3752    3.0360   23.2331 N   0  0  0  0  0  0
    4.2293    1.8841   22.3528 C   0  0  0  0  0  0
    5.6079    1.3459   21.9258 C   0  0  0  0  0  0
    5.5700    0.6672   20.5688 C   0  0  0  0  0  0
    5.2261    1.4362   19.4444 C   0  0  0  0  0  0
    5.2663    0.9143   18.1467 C   0  0  0  0  0  0
    5.5817   -0.4371   17.9690 C   0  0  0  0  0  0
    5.8319   -1.2424   19.0915 C   0  0  0  0  0  0
    5.9749   -2.5637   18.9105 F   0  0  0  0  0  0
    5.8809   -0.6940   20.3898 C   0  0  0  0  0  0
    4.0798    4.4898   25.2419 C   0  0  2  0  0  0
    3.3796    5.6102   24.5035 C   0  0  0  0  0  0
    2.0759    5.9868   24.9170 C   0  0  0  0  0  0
    1.3742    7.0120   24.2596 C   0  0  0  0  0  0
    2.0024    7.6595   23.1837 C   0  0  0  0  0  0
    3.2363    7.3339   22.7579 N   0  0  0  0  0  0
    3.8849    6.3331   23.3892 C   0  0  0  0  0  0
    5.4765    4.7717   25.7231 N   0  0  0  0  0  0
    5.7804    4.9330   27.0516 C   0  0  0  0  0  0
    6.8682    5.3637   27.4327 O   0  0  0  0  0  0
    4.8075    4.5969   28.1237 C   0  0  0  0  0  0
    4.0237    3.4949   28.3567 C   0  0  0  0  0  0
    3.3506    3.7168   29.5891 C   0  0  0  0  0  0
    3.7867    4.9310   30.0386 C   0  0  0  0  0  0
    4.6849    5.4671   29.1690 O   0  0  0  0  0  0
    6.5505    4.9914   24.7089 C   0  0  1  0  0  0
    7.0145    6.4650   24.6318 C   0  0  0  0  0  0
    7.9192    6.6656   23.4168 C   0  0  0  0  0  0
    9.1409    5.7383   23.4817 C   0  0  0  0  0  0
    8.7646    4.2359   23.6252 C   0  0  1  0  0  0
    9.9958    3.3012   23.6606 C   0  0  0  0  0  0
    9.9150    2.0064   24.2297 C   0  0  0  0  0  0
   11.0087    1.1170   24.1710 C   0  0  0  0  0  0
   12.2038    1.5003   23.5364 C   0  0  0  0  0  0
   13.2461    0.6376   23.4673 F   0  0  0  0  0  0
   12.3083    2.7825   22.9711 C   0  0  0  0  0  0
   13.4545    3.1657   22.3594 F   0  0  0  0  0  0
   11.2184    3.6720   23.0409 C   0  0  0  0  0  0
    7.7769    4.0447   24.8180 C   0  0  0  0  0  0
    4.8782    3.8159   22.8078 H   0  0  0  0  0  0
    3.6250    1.0861   22.7846 H   0  0  0  0  0  0
    3.6778    2.2526   21.4890 H   0  0  0  0  0  0
    6.3207    2.1689   21.8499 H   0  0  0  0  0  0
    6.0027    0.6641   22.6803 H   0  0  0  0  0  0
    4.9525    2.4602   19.5814 H   0  0  0  0  0  0
    5.0302    1.5434   17.3034 H   0  0  0  0  0  0
    5.5734   -0.8772   16.9812 H   0  0  0  0  0  0
    6.1095   -1.3275   21.2339 H   0  0  0  0  0  0
    3.4483    4.3254   26.1046 H   0  0  0  0  0  0
    1.5987    5.4833   25.7467 H   0  0  0  0  0  0
    0.3801    7.2973   24.5722 H   0  0  0  0  0  0
    1.5014    8.4539   22.6507 H   0  0  0  0  0  0
    4.8520    6.1352   22.9681 H   0  0  0  0  0  0
    3.9320    2.6344   27.7127 H   0  0  0  0  0  0
    2.6431    3.0682   30.0859 H   0  0  0  0  0  0
    3.5828    5.5259   30.9165 H   0  0  0  0  0  0
    6.1393    4.7484   23.7392 H   0  0  0  0  0  0
    6.1633    7.1422   24.5728 H   0  0  0  0  0  0
    7.5681    6.7596   25.5226 H   0  0  0  0  0  0
    7.3586    6.4735   22.5002 H   0  0  0  0  0  0
    8.2457    7.7053   23.3717 H   0  0  0  0  0  0
    9.7081    5.9180   22.5704 H   0  0  0  0  0  0
    9.7830    6.0353   24.3106 H   0  0  0  0  0  0
    8.2248    3.9596   22.7165 H   0  0  0  0  0  0
    9.0084    1.6556   24.6944 H   0  0  0  0  0  0
   10.9226    0.1302   24.6003 H   0  0  0  0  0  0
   11.3426    4.6333   22.5710 H   0  0  0  0  0  0
    8.3161    4.2022   25.7518 H   0  0  0  0  0  0
    7.3966    3.0234   24.8444 H   0  0  0  0  0  0
  1  2  2  0  0  0
  2  3  1  0  0  0
  2 13  1  0  0  0
  3  4  1  0  0  0
  3 42  1  0  0  0
  4  5  1  0  0  0
  4 43  1  0  0  0
  4 44  1  0  0  0
  5  6  1  0  0  0
  5 45  1  0  0  0
  5 46  1  0  0  0
  6  7  2  0  0  0
  6 12  1  0  0  0
  7  8  1  0  0  0
  7 47  1  0  0  0
  8  9  2  0  0  0
  8 48  1  0  0  0
  9 10  1  0  0  0
  9 49  1  0  0  0
 10 11  1  0  0  0
 10 12  2  0  0  0
 12 50  1  0  0  0
 13 14  1  0  0  0
 13 20  1  0  0  0
 13 51  1  0  0  0
 14 15  2  0  0  0
 14 19  1  0  0  0
 15 16  1  0  0  0
 15 52  1  0  0  0
 16 17  2  0  0  0
 16 53  1  0  0  0
 17 18  1  0  0  0
 17 54  1  0  0  0
 18 19  2  0  0  0
 19 55  1  0  0  0
 20 21  1  0  0  0
 20 28  1  0  0  0
 21 22  2  0  0  0
 21 23  1  0  0  0
 23 24  2  0  0  0
 23 27  1  0  0  0
 24 25  1  0  0  0
 24 56  1  0  0  0
 25 26  2  0  0  0
 25 57  1  0  0  0
 26 27  1  0  0  0
 26 58  1  0  0  0
 28 29  1  0  0  0
 28 41  1  0  0  0
 28 59  1  0  0  0
 29 30  1  0  0  0
 29 60  1  0  0  0
 29 61  1  0  0  0
 30 31  1  0  0  0
 30 62  1  0  0  0
 30 63  1  0  0  0
 31 32  1  0  0  0
 31 64  1  0  0  0
 31 65  1  0  0  0
 32 33  1  0  0  0
 32 41  1  0  0  0
 32 66  1  0  0  0
 33 34  2  0  0  0
 33 40  1  0  0  0
 34 35  1  0  0  0
 34 67  1  0  0  0
 35 36  2  0  0  0
 35 68  1  0  0  0
 36 37  1  0  0  0
 36 38  1  0  0  0
 38 39  1  0  0  0
 38 40  2  0  0  0
 40 69  1  0  0  0
 41 70  1  0  0  0
 41 71  1  0  0  0
M  END
> <s_m_entry_id>
1003

> <s_m_entry_name>
Compounds-withfrags-for-validation-docking.1888

> <s_m_Source_Path>
/home/rodolpho/data/melina/maestro/glide-dock_XP_5RGK_M-PRO_VALIDATION

> <s_m_Source_File>
glide-dock_XP_5RGK_M-PRO_VALIDATION_pv.maegz

> <i_m_Source_File_Index>
1003

> <CID>
ALP-POS-b0bc6a46-26

> <Potency>
99.5

> <pIC50>
4.00218

> <Source>
Postera

> <smiles>
O=C(NCCc1cccc(F)c1)C(c1cccnc1)N(C(=O)c1ccco1)C1CCCC(c2ccc(F)c(F)c2)C1

> <Outcome>
Inactive

> <StandardizerResult>
Clear Stereo (ID: ClearStereo)
Wedge Clean (ID: WedgeClean)
Mesomerize (ID: Mesomerize)
Tautomerize (ID: Tautomerize)
Aromatize (ID: Aromatize)
Add Explicit Hydrogens (ID: AddExplicitH)
Neutralize (ID: Neutralize)
Clean 2D (ID: Clean2D)

> <chiral flag>
0

> <version>
0

> <i_lp_mmshare_version>
41011

> <i_f3d_flags>
0

> <s_epik_input>
RmMoW2NIXTEpW2NIXVtjSF1bY0hdYzFbQ0gyXVtDSDJdW05IXUMoPU8pW0NASF0oYzJbY0hdW2NIXVtjSF1uW2NIXTIpTihDKD1PKWMzW2NIXVtjSF1bY0hdbzMpW0NASF00W0NIMl1bQ0gyXVtDSDJdW0NASF0oW0NIMl00KWM1W2NIXVtjSF1jKEYpYyhGKVtjSF01

> <s_epik_cmdline>
J2VwaWtfcHl0aG9uJywgJy1waHQnLCAnMC41JywgJy1waCcsICc3LjQnLCAnLXRuJywgJzgnLCAnLW1hJywgJzIwMCcsICctaW1hZScsICc8aW5maWxlLm1hZT4nLCAnLW9tYWUnLCAnPG91dGZpbGUubWFlPic=

> <r_lp_tautomer_probability>
1.0

> <r_epik_Ionization_Penalty>
8.0E-4

> <r_epik_Ionization_Penalty_Charging>
0.0

> <r_epik_Ionization_Penalty_Neutral>
8.0E-4

> <r_epik_State_Penalty>
0.0

> <r_epik_Charging_Adjusted_Penalty>
0.0

> <i_epik_Tot_Q>
0

> <i_epik_Tot_abs_Q>
0

> <s_lp_Force_Field>
OPLS3

> <r_lp_Energy>
67.015

> <b_lp_Chiralities_Consistent>
1

> <s_lp_Variant>
ligprep_COVID_compounds-withfrags-smallmolecules-forvalidation.maegz:29-4

> <i_glide_original_lignum>
156

> <s_i_glide_gridfile>
glide-grid_5RGK_M-PRO_COVID

> <i_i_glide_lignum>
156

> <r_i_docking_score>
-4.57084730608889

> <r_i_glide_ligand_efficiency>
-0.111484080636314

> <r_i_glide_ligand_efficiency_sa>
-0.384421328402499

> <r_i_glide_ligand_efficiency_ln>
-0.969720467069211

> <r_glide_XP_GScore>
-4.57084730608889

> <r_i_glide_gscore>
-4.57084730608889

> <r_i_glide_evdw>
-30.4662647247314

> <r_i_glide_ecoul>
-8.07830619812012

> <r_i_glide_energy>
-38.5445709228516

> <r_i_glide_einternal>
8.47077941894531

> <r_i_glide_emodel>
-50.4135319635174

> <r_glide_XP_HBond>
-0.7

> <i_i_glide_confnum>
2

> <i_i_glide_posenum>
3

> <r_i_glide_eff_state_penalty>
0.0

> <i_glide_XP_PoseRank>
1

> <MW>
561.22

> <cLogP>
6.36

> <TPSA>
75.44

> <Rotatable Bonds>
9

> <Fraction sp3>
0.28

> <HBA>
4

> <HBD>
1

> <s_epik_Chemistry_Notes>


> <Structure ID>


> <Submission Fragments>


$$$$
ligprep_COVID_compounds-withfrags-smallmolecules-forvalidation.maegz:6
                    3D
 Structure written by MMmdl.
 56 59  0  0  1  0            999 V2000
    7.4553   -5.6268   27.3752 C   0  0  0  0  0  0
    6.1423   -5.3160   26.6210 C   0  0  2  0  0  0
    6.4758   -4.4060   25.4383 C   0  0  0  0  0  0
    6.8318   -4.9613   24.1873 C   0  0  0  0  0  0
    7.1763   -4.1368   23.1041 C   0  0  0  0  0  0
    7.1756   -2.7422   23.2648 C   0  0  0  0  0  0
    6.8430   -2.1658   24.5042 C   0  0  0  0  0  0
    6.8575   -0.8002   24.5719 O   0  0  0  0  0  0
    6.4907   -2.9966   25.6056 C   0  0  0  0  0  0
    6.1095   -2.4226   26.9286 C   0  0  0  0  0  0
    6.6014   -1.3654   27.3308 O   0  0  0  0  0  0
    5.1238   -3.1877   27.7398 C   0  0  0  0  0  0
    5.0090   -4.6852   27.4844 C   0  0  2  0  0  0
    4.6373   -5.4261   28.7966 C   0  0  2  0  0  0
    3.3196   -4.8720   29.3992 C   0  0  2  0  0  0
    2.0944   -5.4665   28.6132 C   0  0  1  0  0  0
    1.1194   -6.0248   29.5852 N   0  0  0  0  0  0
   -0.2443   -6.1860   29.0843 C   0  0  0  0  0  0
    1.5613   -7.3295   30.0750 C   0  0  0  0  0  0
    1.4737   -4.4689   27.5950 C   0  0  0  0  0  0
    1.1757   -5.1130   26.5579 O   0  5  0  0  0  0
    1.3528   -3.1252   27.9442 C   0  0  0  0  0  0
    0.6424   -2.2029   27.0353 C   0  0  0  0  0  0
    0.5731   -0.9428   27.4722 N   0  0  0  0  0  0
    0.1306   -2.4800   25.9517 O   0  0  0  0  0  0
    1.9466   -2.7029   29.2340 C   0  0  0  0  0  0
    1.4353   -1.8599   29.9815 O   0  0  0  0  0  0
    3.3242   -3.3083   29.5786 C   0  0  2  0  0  0
    4.3743   -2.5928   28.7007 C   0  0  0  0  0  0
    4.4629   -1.2849   29.0158 O   0  0  0  0  0  0
    3.6009   -3.0211   30.9412 O   0  0  0  0  0  0
    5.6642   -5.3401   29.7702 O   0  0  0  0  0  0
    5.6270   -6.5637   26.2114 O   0  0  0  0  0  0
    7.8708   -4.7355   27.8449 H   0  0  0  0  0  0
    8.2137   -6.0142   26.6939 H   0  0  0  0  0  0
    7.3295   -6.3893   28.1434 H   0  0  0  0  0  0
    6.8464   -6.0293   24.0425 H   0  0  0  0  0  0
    7.4334   -4.5709   22.1496 H   0  0  0  0  0  0
    7.4267   -2.1112   22.4245 H   0  0  0  0  0  0
    6.6046   -0.4344   25.4140 H   0  0  0  0  0  0
    4.1283   -4.7371   26.8414 H   0  0  0  0  0  0
    4.5156   -6.4901   28.5958 H   0  0  0  0  0  0
    3.2820   -5.2873   30.4068 H   0  0  0  0  0  0
    2.4452   -6.3327   28.0442 H   0  0  0  0  0  0
   -0.8830   -6.6286   29.8505 H   0  0  0  0  0  0
   -0.2656   -6.8323   28.2036 H   0  0  0  0  0  0
   -0.6876   -5.2240   28.8206 H   0  0  0  0  0  0
    0.8877   -7.6892   30.8529 H   0  0  0  0  0  0
    2.5605   -7.2991   30.5050 H   0  0  0  0  0  0
    1.5682   -8.0649   29.2694 H   0  0  0  0  0  0
    0.9441   -0.7364   28.3924 H   0  0  0  0  0  0
    0.1066   -0.2425   26.9183 H   0  0  0  0  0  0
    5.1735   -0.9277   28.5007 H   0  0  0  0  0  0
    2.7721   -3.0040   31.3977 H   0  0  0  0  0  0
    6.3565   -5.9346   29.5249 H   0  0  0  0  0  0
    6.2162   -7.2437   26.5309 H   0  0  0  0  0  0
  1  2  1  0  0  0
  1 34  1  0  0  0
  1 35  1  0  0  0
  1 36  1  0  0  0
  2  3  1  0  0  0
  2 33  1  0  0  0
  2 13  1  0  0  0
  3  4  2  0  0  0
  3  9  1  0  0  0
  4  5  1  0  0  0
  4 37  1  0  0  0
  5  6  2  0  0  0
  5 38  1  0  0  0
  6  7  1  0  0  0
  6 39  1  0  0  0
  7  8  1  0  0  0
  7  9  2  0  0  0
  8 40  1  0  0  0
  9 10  1  0  0  0
 10 11  2  0  0  0
 10 12  1  0  0  0
 12 13  1  0  0  0
 12 29  2  0  0  0
 13 14  1  0  0  0
 13 41  1  0  0  0
 14 15  1  0  0  0
 14 32  1  0  0  0
 14 42  1  0  0  0
 15 16  1  0  0  0
 15 28  1  0  0  0
 15 43  1  0  0  0
 16 17  1  0  0  0
 16 20  1  0  0  0
 16 44  1  0  0  0
 17 18  1  0  0  0
 17 19  1  0  0  0
 18 45  1  0  0  0
 18 46  1  0  0  0
 18 47  1  0  0  0
 19 48  1  0  0  0
 19 49  1  0  0  0
 19 50  1  0  0  0
 20 21  1  0  0  0
 20 22  2  0  0  0
 22 23  1  0  0  0
 22 26  1  0  0  0
 23 24  1  0  0  0
 23 25  2  0  0  0
 24 51  1  0  0  0
 24 52  1  0  0  0
 26 27  2  0  0  0
 26 28  1  0  0  0
 28 29  1  0  0  0
 28 31  1  0  0  0
 29 30  1  0  0  0
 30 53  1  0  0  0
 31 54  1  0  0  0
 32 55  1  0  0  0
 33 56  1  0  0  0
M  CHG  1  21  -1
M  END
> <s_m_entry_id>
1021

> <s_m_entry_name>
Compounds-withfrags-for-validation-docking.1911

> <s_m_Source_Path>
/home/rodolpho/data/melina/maestro/glide-dock_XP_5RGK_M-PRO_VALIDATION

> <s_m_Source_File>
glide-dock_XP_5RGK_M-PRO_VALIDATION_pv.maegz

> <i_m_Source_File_Index>
1021

> <CID>
Oxitetracyclin

> <Potency>
15.15

> <pIC50>
4.81959

> <Source>
https://doi.org/10.1101/2020.03.23.004580

> <smiles>
C(C1(C2=C(C(=C(C(O[H])=C2C(O[H])=C2C1(C(C1(C(N(C([H])([H])[H])C([H])([H])[H])([H])C(=O)C(=C(N([H])[H])O[H])C(=O)C1(C2=O)O[H])[H])(O[H])[H])[H])[H])[H])[H])O[H])([H])([H])[H]

> <Outcome>
Inactive

> <StandardizerResult>
Clear Stereo (ID: ClearStereo)
Wedge Clean (ID: WedgeClean)
Mesomerize (ID: Mesomerize)
Tautomerize (ID: Tautomerize)
Aromatize (ID: Aromatize)
Add Explicit Hydrogens (ID: AddExplicitH)
Neutralize (ID: Neutralize)
Clean 2D (ID: Clean2D)

> <chiral flag>
0

> <version>
0

> <i_lp_mmshare_version>
41011

> <i_f3d_flags>
0

> <s_epik_input>
W09IXWMxW2NIXVtjSF1bY0hdYyhbQ0BdMihbQ0gzXSlbT0hdKWMxQyg9TylDKD1DM1tPSF0pW0NAQEhdMltDQEBIXShbT0hdKVtDQEBIXShbQ0BAXTM0W09IXSlbQ0BASF0oTihbQ0gzXSlbQ0gzXSlDKD1PKVtDQEhdKEM0PU8pQyg9TylbTkgyXQ==

> <s_epik_cmdline>
J2VwaWtfcHl0aG9uJywgJy1waHQnLCAnMC41JywgJy1waCcsICc3LjQnLCAnLXRuJywgJzgnLCAnLW1hJywgJzIwMCcsICctaW1hZScsICc8aW5maWxlLm1hZT4nLCAnLW9tYWUnLCAnPG91dGZpbGUubWFlPic=

> <r_epik_Ionization_Penalty>
0.3646

> <r_epik_Ionization_Penalty_Charging>
0.0013

> <r_epik_Ionization_Penalty_Neutral>
0.3633

> <r_epik_State_Penalty>
0.3215

> <r_epik_Charging_Adjusted_Penalty>
0.322822

> <i_epik_Tot_Q>
-1

> <i_epik_Tot_abs_Q>
1

> <s_lp_Force_Field>
OPLS3

> <r_lp_Energy>
56.726

> <b_lp_Chiralities_Consistent>
1

> <s_lp_Variant>
ligprep_COVID_compounds-withfrags-smallmolecules-forvalidation.maegz:6-9

> <i_glide_original_lignum>
61

> <s_i_glide_gridfile>
glide-grid_5RGK_M-PRO_COVID

> <i_i_glide_lignum>
61

> <r_i_docking_score>
-4.55847607889899

> <r_i_glide_ligand_efficiency>
-0.138135638754515

> <r_i_glide_ligand_efficiency_sa>
-0.443074802984603

> <r_i_glide_ligand_efficiency_ln>
-1.01378147742118

> <r_glide_XP_GScore>
-4.87997307889899

> <r_i_glide_gscore>
-4.87997307889899

> <r_i_glide_evdw>
-19.5056209564209

> <r_i_glide_ecoul>
-10.8334283828735

> <r_i_glide_energy>
-30.3390493392944

> <r_i_glide_einternal>
2.79310011863708

> <r_i_glide_emodel>
-29.8233923996215

> <r_glide_XP_HBond>
-2.85851350067304

> <i_i_glide_confnum>
1

> <i_i_glide_posenum>
29

> <r_i_glide_eff_state_penalty>
0.321497

> <i_glide_XP_PoseRank>
1

> <r_lp_tautomer_probability>


> <s_epik_Chemistry_Notes>


> <MW>


> <cLogP>


> <TPSA>


> <Rotatable Bonds>


> <Fraction sp3>


> <HBA>


> <HBD>


> <Structure ID>


> <Submission Fragments>


$$$$
ligprep_COVID_compounds-withfrags-smallmolecules-forvalidation.maegz:80
                    3D
 Structure written by MMmdl.
 46 49  0  0  1  0            999 V2000
    2.1734    4.5505   24.6779 C   0  0  0  0  0  0
    2.0968    3.1332   24.6685 O   0  0  0  0  0  0
    3.1889    2.4321   24.2047 C   0  0  0  0  0  0
    3.0897    1.0276   24.1715 C   0  0  0  0  0  0
    4.1557    0.2369   23.6979 C   0  0  0  0  0  0
    5.3558    0.8352   23.2493 C   0  0  0  0  0  0
    6.5372    0.0193   22.7102 C   0  0  2  0  0  0
    6.2461   -0.8279   21.4475 C   0  0  0  0  0  0
    5.9120   -0.0450   20.2086 C   0  0  0  0  0  0
    4.8277    0.8783   20.0746 C   0  0  0  0  0  0
    4.7437    1.4365   18.8305 C   0  0  0  0  0  0
    5.9749    0.8300   17.7709 S   0  0  0  0  0  0
    6.6196   -0.1695   19.0405 C   0  0  0  0  0  0
    7.1610   -0.8425   23.8150 C   0  0  0  0  0  0
    8.3210   -0.6306   24.1710 O   0  0  0  0  0  0
    6.3752   -1.8018   24.3279 N   0  0  0  0  0  0
    6.7023   -2.7254   25.3336 C   0  0  0  0  0  0
    5.8527   -3.0730   26.2678 N   0  0  0  0  0  0
    6.4934   -4.0328   26.9789 N   0  0  0  0  0  0
    7.7484   -4.3487   26.4876 C   0  0  0  0  0  0
    8.7303   -5.2773   26.8588 C   0  0  0  0  0  0
    9.9062   -5.3652   26.0947 C   0  0  0  0  0  0
   10.0885   -4.5455   24.9708 C   0  0  0  0  0  0
    9.0976   -3.6163   24.6061 C   0  0  0  0  0  0
    7.9103   -3.4914   25.3664 C   0  0  0  0  0  0
    5.4638    2.2372   23.3085 C   0  0  0  0  0  0
    4.3958    3.0314   23.7712 C   0  0  0  0  0  0
    1.2376    4.9624   25.0573 H   0  0  0  0  0  0
    2.3244    4.9506   23.6748 H   0  0  0  0  0  0
    2.9726    4.9013   25.3305 H   0  0  0  0  0  0
    2.1800    0.5529   24.5063 H   0  0  0  0  0  0
    4.0323   -0.8328   23.6867 H   0  0  0  0  0  0
    7.3134    0.7291   22.4219 H   0  0  0  0  0  0
    7.1139   -1.4611   21.2419 H   0  0  0  0  0  0
    5.4349   -1.5205   21.6545 H   0  0  0  0  0  0
    4.1529    1.1155   20.8832 H   0  0  0  0  0  0
    4.0443    2.1856   18.4798 H   0  0  0  0  0  0
    7.4717   -0.8056   18.8491 H   0  0  0  0  0  0
    5.4196   -1.8376   24.0048 H   0  0  0  0  0  0
    6.0396   -4.4709   27.7666 H   0  0  0  0  0  0
    8.5780   -5.9370   27.7004 H   0  0  0  0  0  0
   10.6577   -6.0982   26.3391 H   0  0  0  0  0  0
   10.9925   -4.6322   24.3871 H   0  0  0  0  0  0
    9.2423   -2.9994   23.7340 H   0  0  0  0  0  0
    6.3643    2.7299   22.9669 H   0  0  0  0  0  0
    4.5280    4.1026   23.7600 H   0  0  0  0  0  0
  1  2  1  0  0  0
  1 28  1  0  0  0
  1 29  1  0  0  0
  1 30  1  0  0  0
  2  3  1  0  0  0
  3  4  2  0  0  0
  3 27  1  0  0  0
  4  5  1  0  0  0
  4 31  1  0  0  0
  5  6  2  0  0  0
  5 32  1  0  0  0
  6  7  1  0  0  0
  6 26  1  0  0  0
  7  8  1  0  0  0
  7 14  1  0  0  0
  7 33  1  0  0  0
  8  9  1  0  0  0
  8 34  1  0  0  0
  8 35  1  0  0  0
  9 10  1  0  0  0
  9 13  2  0  0  0
 10 11  2  0  0  0
 10 36  1  0  0  0
 11 12  1  0  0  0
 11 37  1  0  0  0
 12 13  1  0  0  0
 13 38  1  0  0  0
 14 15  2  0  0  0
 14 16  1  0  0  0
 16 39  1  0  0  0
 16 17  1  0  0  0
 17 25  1  0  0  0
 17 18  2  0  0  0
 18 19  1  0  0  0
 19 40  1  0  0  0
 19 20  1  0  0  0
 20 21  1  0  0  0
 20 25  2  0  0  0
 21 41  1  0  0  0
 21 22  2  0  0  0
 22 42  1  0  0  0
 22 23  1  0  0  0
 23 43  1  0  0  0
 23 24  2  0  0  0
 24 44  1  0  0  0
 24 25  1  0  0  0
 26 27  2  0  0  0
 26 45  1  0  0  0
 27 46  1  0  0  0
M  END
> <s_m_entry_id>
1041

> <s_m_entry_name>
Compounds-withfrags-for-validation-docking.1837

> <s_m_Source_Path>
/home/rodolpho/data/melina/maestro/glide-dock_XP_5RGK_M-PRO_VALIDATION

> <s_m_Source_File>
glide-dock_XP_5RGK_M-PRO_VALIDATION_pv.maegz

> <i_m_Source_File_Index>
1041

> <CID>
ALP-POS-a3de0cb1-3

> <Potency>
99.5

> <pIC50>
4.00218

> <Source>
Postera

> <smiles>
COc1ccc(C(Cc2ccsc2)C(=O)Nc2n[nH]c3ccccc23)cc1

> <Outcome>
Inactive

> <StandardizerResult>
Clear Stereo (ID: ClearStereo)
Wedge Clean (ID: WedgeClean)
Mesomerize (ID: Mesomerize)
Tautomerize (ID: Tautomerize)
Aromatize (ID: Aromatize)
Add Explicit Hydrogens (ID: AddExplicitH)
Neutralize (ID: Neutralize)
Clean 2D (ID: Clean2D)

> <chiral flag>
0

> <version>
0

> <i_lp_mmshare_version>
41011

> <i_f3d_flags>
0

> <s_epik_input>
W0NIM11PYzFbY0hdW2NIXWMoW2NIXVtjSF0xKVtDQEhdKFtDSDJdYzJbY0hdW2NIXXNbY0hdMilDKD1PKVtOSF1jKFtuSF1uMyljKGMzNClbY0hdW2NIXVtjSF1bY0hdNA==

> <s_epik_cmdline>
J2VwaWtfcHl0aG9uJywgJy1waHQnLCAnMC41JywgJy1waCcsICc3LjQnLCAnLXRuJywgJzgnLCAnLW1hJywgJzIwMCcsICctaW1hZScsICc8aW5maWxlLm1hZT4nLCAnLW9tYWUnLCAnPG91dGZpbGUubWFlPic=

> <r_lp_tautomer_probability>
1.0

> <r_epik_Ionization_Penalty>
0.0

> <r_epik_Ionization_Penalty_Charging>
0.0

> <r_epik_Ionization_Penalty_Neutral>
0.0

> <r_epik_State_Penalty>
0.0

> <r_epik_Charging_Adjusted_Penalty>
0.0

> <i_epik_Tot_Q>
0

> <i_epik_Tot_abs_Q>
0

> <s_lp_Force_Field>
OPLS3

> <r_lp_Energy>
33.6685

> <b_lp_Chiralities_Consistent>
1

> <s_lp_Variant>
ligprep_COVID_compounds-withfrags-smallmolecules-forvalidation.maegz:80-2

> <i_glide_original_lignum>
261

> <s_i_glide_gridfile>
glide-grid_5RGK_M-PRO_COVID

> <i_i_glide_lignum>
261

> <r_i_docking_score>
-4.54462637306888

> <r_i_glide_ligand_efficiency>
-0.168319495298848

> <r_i_glide_ligand_efficiency_sa>
-0.504958485341789

> <r_i_glide_ligand_efficiency_ln>
-1.05791409562905

> <r_glide_XP_GScore>
-4.54462637306888

> <r_i_glide_gscore>
-4.54462637306888

> <r_i_glide_evdw>
-34.8527030944824

> <r_i_glide_ecoul>
-8.89935111999512

> <r_i_glide_energy>
-43.7520542144775

> <r_i_glide_einternal>
8.25270175933838

> <r_i_glide_emodel>
-53.1619338989258

> <r_glide_XP_HBond>
-0.696260632026169

> <i_i_glide_confnum>
1

> <i_i_glide_posenum>
1

> <r_i_glide_eff_state_penalty>
0.0

> <i_glide_XP_PoseRank>
1

> <MW>
377.12

> <cLogP>
4.6

> <TPSA>
67.01

> <Rotatable Bonds>
6

> <Fraction sp3>
0.14

> <HBA>
4

> <HBD>
2

> <s_epik_Chemistry_Notes>


> <Structure ID>


> <Submission Fragments>


$$$$
ligprep_COVID_compounds-withfrags-smallmolecules-forvalidation.maegz:35
                    3D
 Structure written by MMmdl.
 63 66  0  0  1  0            999 V2000
    6.3161    1.4363   17.5858 C   0  0  0  0  0  0
    5.5744   -0.1298   18.0515 S   0  0  0  0  0  0
    5.5974   -0.1663   19.8118 C   0  0  0  0  0  0
    6.4446   -1.1137   20.3934 C   0  0  0  0  0  0
    6.6083   -1.1828   21.7804 C   0  0  0  0  0  0
    5.9789   -0.2396   22.6058 C   0  0  0  0  0  0
    6.2671   -0.1633   24.0919 C   0  0  0  0  0  0
    7.3306   -1.0531   24.6227 N   0  0  0  0  0  0
    8.6587   -0.7065   24.5708 C   0  0  0  0  0  0
    9.5750   -1.5284   24.5704 O   0  0  0  0  0  0
    9.1000    0.7094   24.4654 C   0  0  0  0  0  0
    8.6362    1.8936   24.9790 C   0  0  0  0  0  0
    9.5450    2.9084   24.5707 C   0  0  0  0  0  0
   10.5557    2.2704   23.9162 C   0  0  0  0  0  0
   10.3051    0.9366   23.8531 O   0  0  0  0  0  0
    6.7884   -2.4060   24.9649 C   0  0  2  0  0  0
    5.8981   -2.4290   26.2252 C   0  0  0  0  0  0
    6.1836   -1.7638   27.2199 O   0  0  0  0  0  0
    4.8517   -3.2607   26.1713 N   0  0  0  0  0  0
    4.0104   -3.6729   27.2881 C   0  0  0  0  0  0
    4.0431   -5.2061   27.4493 C   0  0  0  0  0  0
    3.6652   -5.9478   26.1755 C   0  0  0  0  0  0
    2.3452   -6.4069   25.9850 C   0  0  0  0  0  0
    1.9879   -7.0606   24.7894 C   0  0  0  0  0  0
    2.9442   -7.2387   23.7716 C   0  0  0  0  0  0
    4.2626   -6.7820   23.9572 C   0  0  0  0  0  0
    5.1778   -6.9281   22.9715 F   0  0  0  0  0  0
    4.6275   -6.1618   25.1654 C   0  0  0  0  0  0
    7.7794   -3.5145   25.2137 C   0  0  0  0  0  0
    7.9687   -4.5395   24.2607 C   0  0  0  0  0  0
    8.9027   -5.5612   24.5024 C   0  0  0  0  0  0
    9.6369   -5.5336   25.6999 C   0  0  0  0  0  0
    9.4910   -4.5657   26.6222 N   0  0  0  0  0  0
    8.5875   -3.5994   26.3777 C   0  0  0  0  0  0
    5.0587    0.6662   22.0369 C   0  0  0  0  0  0
    4.8297    0.6889   20.6446 C   0  0  0  0  0  0
    3.7655    1.5509   20.1501 C   0  0  0  0  0  0
    2.9017    2.2247   19.7718 N   0  0  0  0  0  0
    6.2389    1.5991   16.5142 H   0  0  0  0  0  0
    7.3691    1.4364   17.8643 H   0  0  0  0  0  0
    5.7872    2.2363   18.0981 H   0  0  0  0  0  0
    7.0201   -1.7637   19.7616 H   0  0  0  0  0  0
    7.2846   -1.9216   22.1807 H   0  0  0  0  0  0
    6.4558    0.8860   24.2722 H   0  0  0  0  0  0
    5.3132   -0.3740   24.5714 H   0  0  0  0  0  0
    7.7478    2.0269   25.5788 H   0  0  0  0  0  0
    9.4846    3.9678   24.7719 H   0  0  0  0  0  0
   11.4773    2.5954   23.4557 H   0  0  0  0  0  0
    6.1514   -2.7002   24.1298 H   0  0  0  0  0  0
    4.7118   -3.7499   25.2985 H   0  0  0  0  0  0
    4.3152   -3.1963   28.2214 H   0  0  0  0  0  0
    2.9915   -3.3415   27.0866 H   0  0  0  0  0  0
    5.0422   -5.5226   27.7534 H   0  0  0  0  0  0
    3.3749   -5.5074   28.2570 H   0  0  0  0  0  0
    1.6019   -6.2580   26.7549 H   0  0  0  0  0  0
    0.9777   -7.4157   24.6486 H   0  0  0  0  0  0
    2.6705   -7.7256   22.8472 H   0  0  0  0  0  0
    5.6456   -5.8294   25.3054 H   0  0  0  0  0  0
    7.4009   -4.5427   23.3416 H   0  0  0  0  0  0
    9.0695   -6.3451   23.7790 H   0  0  0  0  0  0
   10.3716   -6.2946   25.9150 H   0  0  0  0  0  0
    8.5240   -2.8378   27.1384 H   0  0  0  0  0  0
    4.5247    1.3537   22.6778 H   0  0  0  0  0  0
  1  2  1  0  0  0
  1 39  1  0  0  0
  1 40  1  0  0  0
  1 41  1  0  0  0
  2  3  1  0  0  0
  3  4  2  0  0  0
  3 36  1  0  0  0
  4  5  1  0  0  0
  4 42  1  0  0  0
  5  6  2  0  0  0
  5 43  1  0  0  0
  6  7  1  0  0  0
  6 35  1  0  0  0
  7  8  1  0  0  0
  7 44  1  0  0  0
  7 45  1  0  0  0
  8  9  1  0  0  0
  8 16  1  0  0  0
  9 10  2  0  0  0
  9 11  1  0  0  0
 11 12  2  0  0  0
 11 15  1  0  0  0
 12 13  1  0  0  0
 12 46  1  0  0  0
 13 14  2  0  0  0
 13 47  1  0  0  0
 14 15  1  0  0  0
 14 48  1  0  0  0
 16 17  1  0  0  0
 16 29  1  0  0  0
 16 49  1  0  0  0
 17 18  2  0  0  0
 17 19  1  0  0  0
 19 20  1  0  0  0
 19 50  1  0  0  0
 20 21  1  0  0  0
 20 51  1  0  0  0
 20 52  1  0  0  0
 21 22  1  0  0  0
 21 53  1  0  0  0
 21 54  1  0  0  0
 22 23  2  0  0  0
 22 28  1  0  0  0
 23 24  1  0  0  0
 23 55  1  0  0  0
 24 25  2  0  0  0
 24 56  1  0  0  0
 25 26  1  0  0  0
 25 57  1  0  0  0
 26 27  1  0  0  0
 26 28  2  0  0  0
 28 58  1  0  0  0
 29 30  2  0  0  0
 29 34  1  0  0  0
 30 31  1  0  0  0
 30 59  1  0  0  0
 31 32  2  0  0  0
 31 60  1  0  0  0
 32 33  1  0  0  0
 32 61  1  0  0  0
 33 34  2  0  0  0
 34 62  1  0  0  0
 35 36  2  0  0  0
 35 63  1  0  0  0
 36 37  1  0  0  0
 37 38  3  0  0  0
M  END
> <s_m_entry_id>
1055

> <s_m_entry_name>
Compounds-withfrags-for-validation-docking.1882

> <s_m_Source_Path>
/home/rodolpho/data/melina/maestro/glide-dock_XP_5RGK_M-PRO_VALIDATION

> <s_m_Source_File>
glide-dock_XP_5RGK_M-PRO_VALIDATION_pv.maegz

> <i_m_Source_File_Index>
1055

> <CID>
ALP-POS-b0bc6a46-20

> <Potency>
54.8907

> <pIC50>
4.2605

> <Source>
Postera

> <smiles>
CSc1ccc(CN(C(=O)c2ccco2)C(C(=O)NCCc2cccc(F)c2)c2cccnc2)cc1C#N

> <Outcome>
Inactive

> <StandardizerResult>
Clear Stereo (ID: ClearStereo)
Wedge Clean (ID: WedgeClean)
Mesomerize (ID: Mesomerize)
Tautomerize (ID: Tautomerize)
Aromatize (ID: Aromatize)
Add Explicit Hydrogens (ID: AddExplicitH)
Neutralize (ID: Neutralize)
Clean 2D (ID: Clean2D)

> <chiral flag>
0

> <version>
0

> <i_lp_mmshare_version>
41011

> <i_f3d_flags>
0

> <s_epik_input>
W0NIM11TYzFbY0hdW2NIXWMoW2NIXWMxQyNOKVtDSDJdTihDKD1PKWMyW2NIXVtjSF1bY0hdbzIpW0NAQEhdKGMzW2NIXVtjSF1bY0hdbltjSF0zKUMoPU8pW05IXVtDSDJdW0NIMl1jNFtjSF1bY0hdW2NIXWMoRilbY0hdNA==

> <s_epik_cmdline>
J2VwaWtfcHl0aG9uJywgJy1waHQnLCAnMC41JywgJy1waCcsICc3LjQnLCAnLXRuJywgJzgnLCAnLW1hJywgJzIwMCcsICctaW1hZScsICc8aW5maWxlLm1hZT4nLCAnLW9tYWUnLCAnPG91dGZpbGUubWFlPic=

> <r_lp_tautomer_probability>
1.0

> <r_epik_Ionization_Penalty>
7.0E-4

> <r_epik_Ionization_Penalty_Charging>
0.0

> <r_epik_Ionization_Penalty_Neutral>
7.0E-4

> <r_epik_State_Penalty>
0.0

> <r_epik_Charging_Adjusted_Penalty>
0.0

> <i_epik_Tot_Q>
0

> <i_epik_Tot_abs_Q>
0

> <s_lp_Force_Field>
OPLS3

> <r_lp_Energy>
59.5243

> <b_lp_Chiralities_Consistent>
1

> <s_lp_Variant>
ligprep_COVID_compounds-withfrags-smallmolecules-forvalidation.maegz:35-2

> <i_glide_original_lignum>
174

> <s_i_glide_gridfile>
glide-grid_5RGK_M-PRO_COVID

> <i_i_glide_lignum>
174

> <r_i_docking_score>
-4.53435427804701

> <r_i_glide_ligand_efficiency>
-0.119325112580184

> <r_i_glide_ligand_efficiency_sa>
-0.40116809342167

> <r_i_glide_ligand_efficiency_ln>
-0.977740169535639

> <r_glide_XP_GScore>
-4.53435427804701

> <r_i_glide_gscore>
-4.53435427804701

> <r_i_glide_evdw>
-48.2032928466797

> <r_i_glide_ecoul>
-5.80044984817505

> <r_i_glide_energy>
-54.0037426948547

> <r_i_glide_einternal>
15.7477731704712

> <r_i_glide_emodel>
-65.0828747809064

> <r_glide_XP_HBond>
-1.15970776555439

> <i_i_glide_confnum>
1

> <i_i_glide_posenum>
9

> <r_i_glide_eff_state_penalty>
0.0

> <i_glide_XP_PoseRank>
1

> <MW>
528.16

> <cLogP>
5.15

> <TPSA>
99.23

> <Rotatable Bonds>
10

> <Fraction sp3>
0.17

> <HBA>
6

> <HBD>
1

> <s_epik_Chemistry_Notes>


> <Structure ID>


> <Submission Fragments>


$$$$
ligprep_COVID_compounds-withfrags-smallmolecules-forvalidation.maegz:45
                    3D
 Structure written by MMmdl.
 66 70  0  0  1  0            999 V2000
   -2.2602    5.1129   24.2304 C   0  0  0  0  0  0
   -1.8793    4.1442   23.1089 C   0  0  0  0  0  0
   -0.6788    4.5981   22.5080 O   0  0  0  0  0  0
   -0.2243    3.7517   21.4641 C   0  0  1  0  0  0
    1.0822    4.2633   20.8484 C   0  0  0  0  0  0
    1.7636    2.9819   21.2683 C   0  0  1  0  0  0
    0.5060    2.4970   21.9628 C   0  0  0  0  0  0
    2.3944    2.0832   20.2485 C   0  0  0  0  0  0
    3.2520    2.6367   21.3659 C   0  0  2  0  0  0
    3.7712    1.7981   22.4172 N   0  0  0  0  0  0
    3.3906    1.9909   23.7104 C   0  0  0  0  0  0
    3.5195    1.1212   24.5707 O   0  0  0  0  0  0
    2.8852    3.3190   24.1371 C   0  0  0  0  0  0
    3.2373    4.5925   23.7708 C   0  0  0  0  0  0
    2.4390    5.4776   24.5464 C   0  0  0  0  0  0
    1.6766    4.6841   25.3536 C   0  0  0  0  0  0
    1.9518    3.3702   25.1324 O   0  0  0  0  0  0
    4.9513    0.8875   22.1920 C   0  0  2  0  0  0
    6.2790    1.3258   22.8716 C   0  0  0  0  0  0
    6.9898    0.4694   23.3959 O   0  0  0  0  0  0
    6.5518    2.6363   22.9708 N   0  0  0  0  0  0
    7.3732    3.2517   24.0169 C   0  0  0  0  0  0
    8.7010    3.8796   23.5310 C   0  0  0  0  0  0
    9.9763    3.0365   23.5980 C   0  0  0  0  0  0
   10.0273    1.7521   24.1885 C   0  0  0  0  0  0
   11.2219    1.0054   24.1659 C   0  0  0  0  0  0
   12.3743    1.5266   23.5457 C   0  0  0  0  0  0
   12.3392    2.8106   22.9706 C   0  0  0  0  0  0
   13.4454    3.3287   22.3868 F   0  0  0  0  0  0
   11.1504    3.5620   23.0126 C   0  0  0  0  0  0
    5.3387    0.4701   20.7900 C   0  0  0  0  0  0
    5.2593    1.2320   19.5998 C   0  0  0  0  0  0
    5.5747    0.6888   18.3436 C   0  0  0  0  0  0
    6.0019   -0.6402   18.3019 C   0  0  0  0  0  0
    6.1730   -1.3655   19.4153 N   0  0  0  0  0  0
    5.8748   -0.8235   20.6081 C   0  0  0  0  0  0
   -3.1831    4.8007   24.7195 H   0  0  0  0  0  0
   -2.4093    6.1208   23.8423 H   0  0  0  0  0  0
   -1.4779    5.1585   24.9879 H   0  0  0  0  0  0
   -1.7499    3.1403   23.5155 H   0  0  0  0  0  0
   -2.6768    4.0993   22.3656 H   0  0  0  0  0  0
   -0.9787    3.5405   20.7047 H   0  0  0  0  0  0
    1.0242    4.4254   19.7719 H   0  0  0  0  0  0
    1.4627    5.1527   21.3509 H   0  0  0  0  0  0
    0.5600    2.4532   23.0491 H   0  0  0  0  0  0
    0.0843    1.5726   21.5669 H   0  0  0  0  0  0
    2.1447    1.0364   20.2959 H   0  0  0  0  0  0
    2.5568    2.4839   19.2492 H   0  0  0  0  0  0
    3.9143    3.4363   21.0864 H   0  0  0  0  0  0
    3.9750    4.8569   23.0258 H   0  0  0  0  0  0
    2.4292    6.5570   24.5194 H   0  0  0  0  0  0
    0.9305    4.8785   26.1100 H   0  0  0  0  0  0
    4.6696   -0.0389   22.6989 H   0  0  0  0  0  0
    6.0336    3.2893   22.3726 H   0  0  0  0  0  0
    6.7514    4.0755   24.3685 H   0  0  0  0  0  0
    7.4910    2.6196   24.8968 H   0  0  0  0  0  0
    8.5744    4.2495   22.5119 H   0  0  0  0  0  0
    8.8965    4.7636   24.1395 H   0  0  0  0  0  0
    9.1577    1.3076   24.6467 H   0  0  0  0  0  0
   11.2454    0.0233   24.6141 H   0  0  0  0  0  0
   13.2883    0.9516   23.5198 H   0  0  0  0  0  0
   11.1336    4.5472   22.5708 H   0  0  0  0  0  0
    4.9348    2.2424   19.6091 H   0  0  0  0  0  0
    5.4656    1.2743   17.4428 H   0  0  0  0  0  0
    6.2450   -1.1209   17.3667 H   0  0  0  0  0  0
    6.0130   -1.4811   21.4541 H   0  0  0  0  0  0
  1  2  1  0  0  0
  1 37  1  0  0  0
  1 38  1  0  0  0
  1 39  1  0  0  0
  2  3  1  0  0  0
  2 40  1  0  0  0
  2 41  1  0  0  0
  3  4  1  0  0  0
  4  5  1  0  0  0
  4  7  1  0  0  0
  4 42  1  0  0  0
  5  6  1  0  0  0
  5 43  1  0  0  0
  5 44  1  0  0  0
  6  7  1  0  0  0
  6  8  1  0  0  0
  6  9  1  0  0  0
  7 45  1  0  0  0
  7 46  1  0  0  0
  8  9  1  0  0  0
  8 47  1  0  0  0
  8 48  1  0  0  0
  9 10  1  0  0  0
  9 49  1  0  0  0
 10 11  1  0  0  0
 10 18  1  0  0  0
 11 12  2  0  0  0
 11 13  1  0  0  0
 13 14  2  0  0  0
 13 17  1  0  0  0
 14 15  1  0  0  0
 14 50  1  0  0  0
 15 16  2  0  0  0
 15 51  1  0  0  0
 16 17  1  0  0  0
 16 52  1  0  0  0
 18 19  1  0  0  0
 18 31  1  0  0  0
 18 53  1  0  0  0
 19 20  2  0  0  0
 19 21  1  0  0  0
 21 22  1  0  0  0
 21 54  1  0  0  0
 22 23  1  0  0  0
 22 55  1  0  0  0
 22 56  1  0  0  0
 23 24  1  0  0  0
 23 57  1  0  0  0
 23 58  1  0  0  0
 24 25  2  0  0  0
 24 30  1  0  0  0
 25 26  1  0  0  0
 25 59  1  0  0  0
 26 27  2  0  0  0
 26 60  1  0  0  0
 27 28  1  0  0  0
 27 61  1  0  0  0
 28 29  1  0  0  0
 28 30  2  0  0  0
 30 62  1  0  0  0
 31 32  2  0  0  0
 31 36  1  0  0  0
 32 33  1  0  0  0
 32 63  1  0  0  0
 33 34  2  0  0  0
 33 64  1  0  0  0
 34 35  1  0  0  0
 34 65  1  0  0  0
 35 36  2  0  0  0
 36 66  1  0  0  0
M  END
> <s_m_entry_id>
1063

> <s_m_entry_name>
Compounds-withfrags-for-validation-docking.1872

> <s_m_Source_Path>
/home/rodolpho/data/melina/maestro/glide-dock_XP_5RGK_M-PRO_VALIDATION

> <s_m_Source_File>
glide-dock_XP_5RGK_M-PRO_VALIDATION_pv.maegz

> <i_m_Source_File_Index>
1063

> <CID>
ALP-POS-b0bc6a46-4

> <Potency>
99.5

> <pIC50>
4.00218

> <Source>
Postera

> <smiles>
CCOC1CC2(C1)CC2N(C(=O)c1ccco1)C(C(=O)NCCc1cccc(F)c1)c1cccnc1

> <Outcome>
Inactive

> <StandardizerResult>
Clear Stereo (ID: ClearStereo)
Wedge Clean (ID: WedgeClean)
Mesomerize (ID: Mesomerize)
Tautomerize (ID: Tautomerize)
Aromatize (ID: Aromatize)
Add Explicit Hydrogens (ID: AddExplicitH)
Neutralize (ID: Neutralize)
Clean 2D (ID: Clean2D)

> <chiral flag>
0

> <version>
0

> <i_lp_mmshare_version>
41011

> <i_f3d_flags>
0

> <s_epik_input>
W0NIM11bQ0gyXU9bQ0BIXShbQ0gyXTEpW0NIMl1bQ0BdMTJbQ0gyXVtDQEBIXTJOKEMoPU8pYzNbY0hdW2NIXVtjSF1vMylbQ0BASF0oYzRbY0hdW2NIXVtjSF1uW2NIXTQpQyg9TylbTkhdW0NIMl1bQ0gyXWM1W2NIXVtjSF1bY0hdYyhGKVtjSF01

> <s_epik_cmdline>
J2VwaWtfcHl0aG9uJywgJy1waHQnLCAnMC41JywgJy1waCcsICc3LjQnLCAnLXRuJywgJzgnLCAnLW1hJywgJzIwMCcsICctaW1hZScsICc8aW5maWxlLm1hZT4nLCAnLW9tYWUnLCAnPG91dGZpbGUubWFlPic=

> <r_lp_tautomer_probability>
1.0

> <r_epik_Ionization_Penalty>
8.0E-4

> <r_epik_Ionization_Penalty_Charging>
0.0

> <r_epik_Ionization_Penalty_Neutral>
8.0E-4

> <r_epik_State_Penalty>
0.0

> <r_epik_Charging_Adjusted_Penalty>
0.0

> <i_epik_Tot_Q>
0

> <i_epik_Tot_abs_Q>
0

> <s_lp_Force_Field>
OPLS3

> <r_lp_Energy>
66.4519

> <b_lp_Chiralities_Consistent>
1

> <s_lp_Variant>
ligprep_COVID_compounds-withfrags-smallmolecules-forvalidation.maegz:45-4

> <i_glide_original_lignum>
198

> <s_i_glide_gridfile>
glide-grid_5RGK_M-PRO_COVID

> <i_i_glide_lignum>
198

> <r_i_docking_score>
-4.52433314116005

> <r_i_glide_ligand_efficiency>
-0.125675920587779

> <r_i_glide_ligand_efficiency_sa>
-0.414972746223018

> <r_i_glide_ligand_efficiency_ln>
-0.987087258045454

> <r_glide_XP_GScore>
-4.52433314116005

> <r_i_glide_gscore>
-4.52433314116005

> <r_i_glide_evdw>
-32.3550605773926

> <r_i_glide_ecoul>
-9.26568508148193

> <r_i_glide_energy>
-41.6207456588745

> <r_i_glide_einternal>
9.98505115509033

> <r_i_glide_emodel>
-56.6050072339022

> <r_glide_XP_HBond>
-0.59868407881294

> <i_i_glide_confnum>
1

> <i_i_glide_posenum>
33

> <r_i_glide_eff_state_penalty>
0.0

> <i_glide_XP_PoseRank>
1

> <MW>
491.22

> <cLogP>
4.31

> <TPSA>
84.67

> <Rotatable Bonds>
10

> <Fraction sp3>
0.39

> <HBA>
5

> <HBD>
1

> <s_epik_Chemistry_Notes>


> <Structure ID>


> <Submission Fragments>


$$$$
ligprep_COVID_compounds-withfrags-smallmolecules-forvalidation.maegz:82
                    3D
 Structure written by MMmdl.
 57 61  0  0  1  0            999 V2000
    9.9551   -1.7621   24.1554 O   0  0  0  0  0  0
    8.9573   -1.4262   24.7885 C   0  0  0  0  0  0
    9.0899   -0.3166   25.8386 C   0  0  0  0  0  0
    9.3030    0.9892   25.2166 N   0  0  0  0  0  0
    8.3746    1.9662   25.4157 N   0  0  0  0  0  0
    8.7427    3.0407   24.7893 N   0  0  0  0  0  0
    9.9496    2.7803   24.1702 C   0  0  0  0  0  0
   10.7872    3.5900   23.3706 C   0  0  0  0  0  0
   11.9984    3.0760   22.8621 C   0  0  0  0  0  0
   12.3846    1.7492   23.1435 C   0  0  0  0  0  0
   11.5599    0.9310   23.9397 C   0  0  0  0  0  0
   10.3557    1.4539   24.4416 C   0  0  0  0  0  0
    7.7718   -2.0609   24.6575 N   0  0  0  0  0  0
    7.2104   -2.3316   23.3235 C   0  0  0  0  0  0
    6.6314   -1.1327   22.5721 C   0  0  0  0  0  0
    6.3334    0.0934   23.2097 C   0  0  0  0  0  0
    5.8204    1.1761   22.4682 C   0  0  0  0  0  0
    5.5779    1.0361   21.0884 C   0  0  0  0  0  0
    5.8522   -0.1860   20.4487 C   0  0  0  0  0  0
    6.3744   -1.2646   21.1895 C   0  0  0  0  0  0
    7.3073   -2.8783   25.7220 C   0  0  0  0  0  0
    5.9515   -2.8486   26.1041 C   0  0  0  0  0  0
    5.4901   -3.6907   27.1355 C   0  0  0  0  0  0
    6.3692   -4.5874   27.7926 C   0  0  0  0  0  0
    5.9480   -5.3713   28.8886 N   0  0  0  0  0  0
    4.6913   -5.0902   29.5766 C   0  0  0  0  0  0
    4.7595   -5.5819   31.0366 C   0  0  0  0  0  0
    5.1597   -6.9503   31.0853 O   0  0  0  0  0  0
    6.4515   -7.1310   30.5100 C   0  0  0  0  0  0
    6.4089   -6.7519   29.0203 C   0  0  0  0  0  0
    7.7172   -4.6353   27.3704 C   0  0  0  0  0  0
    8.1848   -3.7876   26.3549 C   0  0  0  0  0  0
    8.1981   -0.2809   26.4680 H   0  0  0  0  0  0
    9.9345   -0.5337   26.4926 H   0  0  0  0  0  0
   10.4927    4.6038   23.1403 H   0  0  0  0  0  0
   12.6291    3.7012   22.2466 H   0  0  0  0  0  0
   13.3109    1.3606   22.7455 H   0  0  0  0  0  0
   11.8340   -0.0903   24.1478 H   0  0  0  0  0  0
    7.9718   -2.8053   22.7020 H   0  0  0  0  0  0
    6.4139   -3.0732   23.3979 H   0  0  0  0  0  0
    6.5014    0.2186   24.2675 H   0  0  0  0  0  0
    5.6150    2.1210   22.9514 H   0  0  0  0  0  0
    5.1861    1.8707   20.5239 H   0  0  0  0  0  0
    5.6652   -0.2973   19.3905 H   0  0  0  0  0  0
    6.5879   -2.1977   20.6888 H   0  0  0  0  0  0
    5.2633   -2.1776   25.6100 H   0  0  0  0  0  0
    4.4490   -3.6314   27.4119 H   0  0  0  0  0  0
    4.4790   -4.0211   29.5805 H   0  0  0  0  0  0
    3.8773   -5.5871   29.0477 H   0  0  0  0  0  0
    5.4563   -4.9718   31.6143 H   0  0  0  0  0  0
    3.7842   -5.4802   31.5123 H   0  0  0  0  0  0
    7.1744   -6.5162   31.0479 H   0  0  0  0  0  0
    6.7757   -8.1636   30.6271 H   0  0  0  0  0  0
    5.7155   -7.4078   28.4919 H   0  0  0  0  0  0
    7.3876   -6.9232   28.5751 H   0  0  0  0  0  0
    8.4325   -5.2908   27.8444 H   0  0  0  0  0  0
    9.2225   -3.8582   26.0605 H   0  0  0  0  0  0
  1  2  2  0  0  0
  2  3  1  0  0  0
  2 13  1  0  0  0
  3  4  1  0  0  0
  3 33  1  0  0  0
  3 34  1  0  0  0
  4  5  1  0  0  0
  4 12  1  0  0  0
  5  6  2  0  0  0
  6  7  1  0  0  0
  7  8  2  0  0  0
  7 12  1  0  0  0
  8  9  1  0  0  0
  8 35  1  0  0  0
  9 10  2  0  0  0
  9 36  1  0  0  0
 10 11  1  0  0  0
 10 37  1  0  0  0
 11 12  2  0  0  0
 11 38  1  0  0  0
 13 14  1  0  0  0
 13 21  1  0  0  0
 14 15  1  0  0  0
 14 39  1  0  0  0
 14 40  1  0  0  0
 15 16  2  0  0  0
 15 20  1  0  0  0
 16 17  1  0  0  0
 16 41  1  0  0  0
 17 18  2  0  0  0
 17 42  1  0  0  0
 18 19  1  0  0  0
 18 43  1  0  0  0
 19 20  2  0  0  0
 19 44  1  0  0  0
 20 45  1  0  0  0
 21 22  2  0  0  0
 21 32  1  0  0  0
 22 23  1  0  0  0
 22 46  1  0  0  0
 23 24  2  0  0  0
 23 47  1  0  0  0
 24 25  1  0  0  0
 24 31  1  0  0  0
 25 26  1  0  0  0
 25 30  1  0  0  0
 26 27  1  0  0  0
 26 48  1  0  0  0
 26 49  1  0  0  0
 27 28  1  0  0  0
 27 50  1  0  0  0
 27 51  1  0  0  0
 28 29  1  0  0  0
 29 30  1  0  0  0
 29 52  1  0  0  0
 29 53  1  0  0  0
 30 54  1  0  0  0
 30 55  1  0  0  0
 31 32  2  0  0  0
 31 56  1  0  0  0
 32 57  1  0  0  0
M  END
> <s_m_entry_id>
1084

> <s_m_entry_name>
Compounds-withfrags-for-validation-docking.1835

> <s_m_Source_Path>
/home/rodolpho/data/melina/maestro/glide-dock_XP_5RGK_M-PRO_VALIDATION

> <s_m_Source_File>
glide-dock_XP_5RGK_M-PRO_VALIDATION_pv.maegz

> <i_m_Source_File_Index>
1084

> <CID>
ALP-POS-6d04362c-5

> <Potency>
19.7611

> <pIC50>
4.70419

> <Source>
Postera

> <smiles>
O=C(Cn1nnc2ccccc21)N(Cc1ccccc1)c1ccc(N2CCOCC2)cc1

> <Outcome>
Inactive

> <StandardizerResult>
Clear Stereo (ID: ClearStereo)
Wedge Clean (ID: WedgeClean)
Mesomerize (ID: Mesomerize)
Tautomerize (ID: Tautomerize)
Aromatize (ID: Aromatize)
Add Explicit Hydrogens (ID: AddExplicitH)
Neutralize (ID: Neutralize)
Clean 2D (ID: Clean2D)

> <chiral flag>
0

> <version>
0

> <i_lp_mmshare_version>
41011

> <i_f3d_flags>
0

> <s_epik_input>
W2NIXTFbY0hdW2NIXVtjSF1jKGMxMiluKG5uMilbQ0gyXUMoPU8pTihbQ0gyXWMzW2NIXVtjSF1bY0hdW2NIXVtjSF0zKWM0W2NIXVtjSF1jKFtjSF1bY0hdNClONVtDSDJdW0NIMl1PW0NIMl1bQ0gyXTU=

> <s_epik_cmdline>
J2VwaWtfcHl0aG9uJywgJy1waHQnLCAnMC41JywgJy1waCcsICc3LjQnLCAnLXRuJywgJzgnLCAnLW1hJywgJzIwMCcsICctaW1hZScsICc8aW5maWxlLm1hZT4nLCAnLW9tYWUnLCAnPG91dGZpbGUubWFlPic=

> <r_lp_tautomer_probability>
1.0

> <r_epik_Ionization_Penalty>
0.0

> <r_epik_Ionization_Penalty_Charging>
0.0

> <r_epik_Ionization_Penalty_Neutral>
0.0

> <r_epik_State_Penalty>
0.0

> <r_epik_Charging_Adjusted_Penalty>
0.0

> <i_epik_Tot_Q>
0

> <i_epik_Tot_abs_Q>
0

> <s_lp_Force_Field>
OPLS3

> <r_lp_Energy>
49.6095

> <b_lp_Chiralities_Consistent>
1

> <s_lp_Variant>
ligprep_COVID_compounds-withfrags-smallmolecules-forvalidation.maegz:82-1

> <i_glide_original_lignum>
263

> <s_i_glide_gridfile>
glide-grid_5RGK_M-PRO_COVID

> <i_i_glide_lignum>
263

> <r_i_docking_score>
-4.50487086610952

> <r_i_glide_ligand_efficiency>
-0.140777214565923

> <r_i_glide_ligand_efficiency_sa>
-0.446939796473872

> <r_i_glide_ligand_efficiency_ln>
-1.00876338506387

> <r_glide_XP_GScore>
-4.50487086610952

> <r_i_glide_gscore>
-4.50487086610952

> <r_i_glide_evdw>
-41.0768814086914

> <r_i_glide_ecoul>
-7.53158521652222

> <r_i_glide_energy>
-48.6084666252136

> <r_i_glide_einternal>
6.30275726318359

> <r_i_glide_emodel>
-62.6621709556134

> <r_glide_XP_HBond>
0.0

> <i_i_glide_confnum>
2

> <i_i_glide_posenum>
1

> <r_i_glide_eff_state_penalty>
0.0

> <i_glide_XP_PoseRank>
1

> <MW>
427.2

> <cLogP>
3.5

> <TPSA>
63.49

> <Rotatable Bonds>
6

> <Fraction sp3>
0.24

> <HBA>
6

> <HBD>
0

> <s_epik_Chemistry_Notes>


> <Structure ID>


> <Submission Fragments>


$$$$
ligprep_COVID_compounds-withfrags-smallmolecules-forvalidation.maegz:66
                    3D
 Structure written by MMmdl.
 63 66  0  0  1  0            999 V2000
    4.8884    1.6394   22.1599 C   0  0  0  0  0  0
    5.3145    0.7844   20.9717 C   0  0  0  0  0  0
    5.0937    1.2689   19.6772 C   0  0  0  0  0  0
    5.4854    0.4917   18.5891 C   0  0  0  0  0  0
    6.0777   -0.7185   18.7253 N   0  0  0  0  0  0
    6.2893   -1.1836   19.9819 C   0  0  0  0  0  0
    5.9226   -0.4760   21.1429 C   0  0  0  0  0  0
    6.1347   -0.9413   22.4598 N   0  0  0  0  0  0
    6.8898   -0.4228   23.4528 C   0  0  0  0  0  0
    7.5750    0.5965   23.3714 O   0  0  0  0  0  0
    6.8778   -1.2031   24.7741 C   0  0  0  0  0  0
    7.4001   -2.6238   24.5901 C   0  0  0  0  0  0
    8.4669   -3.0896   25.3653 C   0  0  0  0  0  0
    8.9314   -4.3941   25.2085 C   0  0  0  0  0  0
   10.2453   -4.9642   26.1714 Cl  0  0  0  0  0  0
    8.3346   -5.2379   24.2726 C   0  0  0  0  0  0
    7.2719   -4.7922   23.4836 C   0  0  0  0  0  0
    6.7504   -5.6958   22.5793 O   0  0  0  0  0  0
    5.3486   -5.9516   22.5728 C   0  0  0  0  0  0
    4.8911   -6.1643   23.9988 C   0  0  0  0  0  0
    5.5534   -5.6606   25.0080 N   0  0  0  0  0  0
    4.9209   -5.9966   26.1634 N   0  0  0  0  0  0
    5.4337   -5.5718   27.4086 C   0  0  0  0  0  0
    6.4804   -4.9291   27.5083 O   0  0  0  0  0  0
    4.6371   -5.9717   28.4578 O   0  0  0  0  0  0
    5.1111   -6.3240   29.7695 C   0  0  0  0  0  0
    3.9946   -6.9843   30.6147 C   0  0  0  0  0  0
    5.7218   -5.1005   30.4968 C   0  0  0  0  0  0
    6.2227   -7.3597   29.5033 C   0  0  0  0  0  0
    3.7949   -6.7659   25.8779 C   0  0  0  0  0  0
    2.8184   -7.3617   26.6926 C   0  0  0  0  0  0
    1.8013   -8.0735   26.0550 C   0  0  0  0  0  0
    1.7457   -8.1942   24.6691 C   0  0  0  0  0  0
    2.7120   -7.6049   23.8571 C   0  0  0  0  0  0
    3.7514   -6.8821   24.4631 C   0  0  0  0  0  0
    6.8036   -3.4784   23.6564 C   0  0  0  0  0  0
    5.7541    1.8988   22.7702 H   0  0  0  0  0  0
    4.1760    1.0988   22.7841 H   0  0  0  0  0  0
    4.4136    2.5695   21.8445 H   0  0  0  0  0  0
    4.6279    2.2295   19.5125 H   0  0  0  0  0  0
    5.3274    0.8395   17.5788 H   0  0  0  0  0  0
    6.7747   -2.1452   20.0113 H   0  0  0  0  0  0
    5.6524   -1.8018   22.6735 H   0  0  0  0  0  0
    7.4647   -0.6815   25.5330 H   0  0  0  0  0  0
    5.8556   -1.2357   25.1551 H   0  0  0  0  0  0
    8.9304   -2.4400   26.0941 H   0  0  0  0  0  0
    8.7020   -6.2469   24.1527 H   0  0  0  0  0  0
    4.8270   -5.1172   22.0989 H   0  0  0  0  0  0
    5.1303   -6.8452   21.9852 H   0  0  0  0  0  0
    4.3847   -7.3568   31.5626 H   0  0  0  0  0  0
    3.5465   -7.8294   30.0909 H   0  0  0  0  0  0
    3.1924   -6.2868   30.8552 H   0  0  0  0  0  0
    4.9707   -4.3494   30.7411 H   0  0  0  0  0  0
    6.4831   -4.6137   29.8859 H   0  0  0  0  0  0
    6.1935   -5.3930   31.4356 H   0  0  0  0  0  0
    6.6690   -7.7161   30.4329 H   0  0  0  0  0  0
    7.0263   -6.9387   28.8972 H   0  0  0  0  0  0
    5.8392   -8.2318   28.9715 H   0  0  0  0  0  0
    2.8381   -7.2817   27.7694 H   0  0  0  0  0  0
    1.0350   -8.5442   26.6536 H   0  0  0  0  0  0
    0.9408   -8.7544   24.2163 H   0  0  0  0  0  0
    2.6600   -7.7069   22.7828 H   0  0  0  0  0  0
    5.9751   -3.1090   23.0712 H   0  0  0  0  0  0
  1  2  1  0  0  0
  1 37  1  0  0  0
  1 38  1  0  0  0
  1 39  1  0  0  0
  2  3  2  0  0  0
  2  7  1  0  0  0
  3  4  1  0  0  0
  3 40  1  0  0  0
  4  5  2  0  0  0
  4 41  1  0  0  0
  5  6  1  0  0  0
  6  7  2  0  0  0
  6 42  1  0  0  0
  7  8  1  0  0  0
  8  9  1  0  0  0
  8 43  1  0  0  0
  9 10  2  0  0  0
  9 11  1  0  0  0
 11 12  1  0  0  0
 11 44  1  0  0  0
 11 45  1  0  0  0
 12 13  2  0  0  0
 12 36  1  0  0  0
 13 14  1  0  0  0
 13 46  1  0  0  0
 14 15  1  0  0  0
 14 16  2  0  0  0
 16 17  1  0  0  0
 16 47  1  0  0  0
 17 18  1  0  0  0
 17 36  2  0  0  0
 18 19  1  0  0  0
 19 20  1  0  0  0
 19 48  1  0  0  0
 19 49  1  0  0  0
 20 21  2  0  0  0
 20 35  1  0  0  0
 21 22  1  0  0  0
 22 23  1  0  0  0
 22 30  1  0  0  0
 23 24  2  0  0  0
 23 25  1  0  0  0
 25 26  1  0  0  0
 26 27  1  0  0  0
 26 28  1  0  0  0
 26 29  1  0  0  0
 27 50  1  0  0  0
 27 51  1  0  0  0
 27 52  1  0  0  0
 28 53  1  0  0  0
 28 54  1  0  0  0
 28 55  1  0  0  0
 29 56  1  0  0  0
 29 57  1  0  0  0
 29 58  1  0  0  0
 30 31  2  0  0  0
 30 35  1  0  0  0
 31 32  1  0  0  0
 31 59  1  0  0  0
 32 33  2  0  0  0
 32 60  1  0  0  0
 33 34  1  0  0  0
 33 61  1  0  0  0
 34 35  2  0  0  0
 34 62  1  0  0  0
 36 63  1  0  0  0
M  END
> <s_m_entry_id>
1093

> <s_m_entry_name>
Compounds-withfrags-for-validation-docking.1851

> <s_m_Source_Path>
/home/rodolpho/data/melina/maestro/glide-dock_XP_5RGK_M-PRO_VALIDATION

> <s_m_Source_File>
glide-dock_XP_5RGK_M-PRO_VALIDATION_pv.maegz

> <i_m_Source_File_Index>
1093

> <CID>
CHO-MSK-6e55470f-24

> <Potency>
99.5

> <pIC50>
4.00218

> <Source>
Postera

> <smiles>
Cc1ccncc1NC(=O)Cc1cc(Cl)cc(OCc2nn(C(=O)OC(C)(C)C)c3ccccc23)c1

> <Outcome>
Inactive

> <StandardizerResult>
Clear Stereo (ID: ClearStereo)
Wedge Clean (ID: WedgeClean)
Mesomerize (ID: Mesomerize)
Tautomerize (ID: Tautomerize)
Aromatize (ID: Aromatize)
Add Explicit Hydrogens (ID: AddExplicitH)
Neutralize (ID: Neutralize)
Clean 2D (ID: Clean2D)

> <chiral flag>
0

> <version>
0

> <i_lp_mmshare_version>
41011

> <i_f3d_flags>
0

> <s_epik_input>
W0NIM11jMVtjSF1bY0hdbltjSF1jMVtOSF1DKD1PKVtDSDJdYzJbY0hdYyhDbClbY0hdYyhbY0hdMilPW0NIMl1jKGMoYzM0KVtjSF1bY0hdW2NIXVtjSF00KW5uM0MoPU8pT0MoW0NIM10pKFtDSDNdKVtDSDNd

> <s_epik_cmdline>
J2VwaWtfcHl0aG9uJywgJy1waHQnLCAnMC41JywgJy1waCcsICc3LjQnLCAnLXRuJywgJzgnLCAnLW1hJywgJzIwMCcsICctaW1hZScsICc8aW5maWxlLm1hZT4nLCAnLW9tYWUnLCAnPG91dGZpbGUubWFlPic=

> <r_lp_tautomer_probability>
1.0

> <r_epik_Ionization_Penalty>
0.0032

> <r_epik_Ionization_Penalty_Charging>
0.0

> <r_epik_Ionization_Penalty_Neutral>
0.0032

> <r_epik_State_Penalty>
0.0

> <r_epik_Charging_Adjusted_Penalty>
0.0

> <i_epik_Tot_Q>
0

> <i_epik_Tot_abs_Q>
0

> <s_lp_Force_Field>
OPLS3

> <r_lp_Energy>
47.4214

> <b_lp_Chiralities_Consistent>
1

> <s_lp_Variant>
ligprep_COVID_compounds-withfrags-smallmolecules-forvalidation.maegz:66-1

> <i_glide_original_lignum>
240

> <s_i_glide_gridfile>
glide-grid_5RGK_M-PRO_COVID

> <i_i_glide_lignum>
240

> <r_i_docking_score>
-4.5018270805713

> <r_i_glide_ligand_efficiency>
-0.125050752238092

> <r_i_glide_ligand_efficiency_sa>
-0.412908485816504

> <r_i_glide_ligand_efficiency_ln>
-0.982177043668477

> <r_glide_XP_GScore>
-4.5018270805713

> <r_i_glide_gscore>
-4.5018270805713

> <r_i_glide_evdw>
-47.9102897644043

> <r_i_glide_ecoul>
-5.19610834121704

> <r_i_glide_energy>
-53.1063981056213

> <r_i_glide_einternal>
8.10919761657715

> <r_i_glide_emodel>
-76.0826856257644

> <r_glide_XP_HBond>
-0.798553856262137

> <i_i_glide_confnum>
1

> <i_i_glide_posenum>
18

> <r_i_glide_eff_state_penalty>
0.0

> <i_glide_XP_PoseRank>
1

> <s_epik_Chemistry_Notes>
This compound has an ester and may undergo hydrolysis at high or low pH.

> <MW>
506.17

> <cLogP>
5.94

> <TPSA>
95.34

> <Rotatable Bonds>
6

> <Fraction sp3>
0.26

> <HBA>
7

> <HBD>
1

> <Structure ID>


> <Submission Fragments>


$$$$
ligprep_COVID_compounds-withfrags-smallmolecules-forvalidation.maegz:86
                    3D
 Structure written by MMmdl.
 47 49  0  0  1  0            999 V2000
    4.9189    1.6378   22.1959 C   0  0  0  0  0  0
    5.3651    0.7044   21.0766 C   0  0  0  0  0  0
    5.1675    1.0950   19.7470 C   0  0  0  0  0  0
    5.5722    0.2394   18.7238 C   0  0  0  0  0  0
    6.1476   -0.9652   18.9557 N   0  0  0  0  0  0
    6.3379   -1.3383   20.2459 C   0  0  0  0  0  0
    5.9737   -0.5380   21.3445 C   0  0  0  0  0  0
    6.1503   -0.9311   22.6875 N   0  0  0  0  0  0
    7.0165   -0.4478   23.6037 C   0  0  0  0  0  0
    7.9116    0.3658   23.3720 O   0  0  0  0  0  0
    6.8232   -0.9558   25.0388 C   0  0  0  0  0  0
    7.0594   -2.4588   25.1278 C   0  0  0  0  0  0
    8.3598   -2.9669   25.1919 C   0  0  0  0  0  0
    8.5704   -4.3405   25.2986 C   0  0  0  0  0  0
   10.1777   -4.9642   25.3740 Cl  0  0  0  0  0  0
    7.4812   -5.2104   25.3482 C   0  0  0  0  0  0
    6.1689   -4.7225   25.2973 C   0  0  0  0  0  0
    5.0134   -5.6619   25.3478 C   0  0  0  0  0  0
    4.3476   -5.8526   26.5666 C   0  0  0  0  0  0
    3.2618   -6.7198   26.6684 C   0  0  0  0  0  0
    2.8158   -7.4134   25.5440 C   0  0  0  0  0  0
    1.4218   -8.5289   25.6786 S   0  0  0  0  0  0
    0.0712   -7.6495   24.6998 C   0  0  0  0  0  0
    1.7798   -9.7632   24.9706 O   0  0  0  0  0  0
    1.0199   -8.5723   27.0891 O   0  0  0  0  0  0
    3.4671   -7.2370   24.3220 C   0  0  0  0  0  0
    4.5537   -6.3657   24.2164 C   0  0  0  0  0  0
    5.2747   -6.1631   22.6544 Cl  0  0  0  0  0  0
    5.9742   -3.3399   25.1798 C   0  0  0  0  0  0
    5.7533    1.8645   22.8601 H   0  0  0  0  0  0
    4.1277    1.1727   22.7847 H   0  0  0  0  0  0
    4.5365    2.5840   21.8105 H   0  0  0  0  0  0
    4.7086    2.0431   19.5068 H   0  0  0  0  0  0
    5.4313    0.5140   17.6886 H   0  0  0  0  0  0
    6.7746   -2.3175   20.3667 H   0  0  0  0  0  0
    5.5022   -1.6359   23.0067 H   0  0  0  0  0  0
    7.4917   -0.4349   25.7273 H   0  0  0  0  0  0
    5.8086   -0.7175   25.3627 H   0  0  0  0  0  0
    9.2059   -2.2952   25.1635 H   0  0  0  0  0  0
    7.6584   -6.2731   25.4357 H   0  0  0  0  0  0
    4.6775   -5.3268   27.4513 H   0  0  0  0  0  0
    2.7711   -6.8489   27.6221 H   0  0  0  0  0  0
   -0.8324   -8.2583   24.7231 H   0  0  0  0  0  0
    0.4060   -7.5207   23.6706 H   0  0  0  0  0  0
   -0.1226   -6.6786   25.1547 H   0  0  0  0  0  0
    3.1257   -7.7689   23.4457 H   0  0  0  0  0  0
    4.9695   -2.9445   25.1313 H   0  0  0  0  0  0
  1  2  1  0  0  0
  1 30  1  0  0  0
  1 31  1  0  0  0
  1 32  1  0  0  0
  2  3  2  0  0  0
  2  7  1  0  0  0
  3  4  1  0  0  0
  3 33  1  0  0  0
  4  5  2  0  0  0
  4 34  1  0  0  0
  5  6  1  0  0  0
  6  7  2  0  0  0
  6 35  1  0  0  0
  7  8  1  0  0  0
  8  9  1  0  0  0
  8 36  1  0  0  0
  9 10  2  0  0  0
  9 11  1  0  0  0
 11 12  1  0  0  0
 11 37  1  0  0  0
 11 38  1  0  0  0
 12 13  2  0  0  0
 12 29  1  0  0  0
 13 14  1  0  0  0
 13 39  1  0  0  0
 14 15  1  0  0  0
 14 16  2  0  0  0
 16 17  1  0  0  0
 16 40  1  0  0  0
 17 18  1  0  0  0
 17 29  2  0  0  0
 18 19  2  0  0  0
 18 27  1  0  0  0
 19 20  1  0  0  0
 19 41  1  0  0  0
 20 21  2  0  0  0
 20 42  1  0  0  0
 21 22  1  0  0  0
 21 26  1  0  0  0
 22 23  1  0  0  0
 22 24  2  0  0  0
 22 25  2  0  0  0
 23 43  1  0  0  0
 23 44  1  0  0  0
 23 45  1  0  0  0
 26 27  2  0  0  0
 26 46  1  0  0  0
 27 28  1  0  0  0
 29 47  1  0  0  0
M  END
> <s_m_entry_id>
1116

> <s_m_entry_name>
Compounds-withfrags-for-validation-docking.1831

> <s_m_Source_Path>
/home/rodolpho/data/melina/maestro/glide-dock_XP_5RGK_M-PRO_VALIDATION

> <s_m_Source_File>
glide-dock_XP_5RGK_M-PRO_VALIDATION_pv.maegz

> <i_m_Source_File_Index>
1116

> <CID>
MAT-POS-f42f3716-2

> <Potency>
99.5

> <pIC50>
4.00218

> <Source>
Postera

> <smiles>
Cc1ccncc1NC(=O)Cc1cc(Cl)cc(-c2ccc(S(C)(=O)=O)cc2Cl)c1

> <Outcome>
Inactive

> <StandardizerResult>
Clear Stereo (ID: ClearStereo)
Wedge Clean (ID: WedgeClean)
Mesomerize (ID: Mesomerize)
Tautomerize (ID: Tautomerize)
Aromatize (ID: Aromatize)
Add Explicit Hydrogens (ID: AddExplicitH)
Neutralize (ID: Neutralize)
Clean 2D (ID: Clean2D)

> <chiral flag>
0

> <version>
0

> <i_lp_mmshare_version>
41011

> <i_f3d_flags>
0

> <s_epik_input>
W0NIM11jMVtjSF1bY0hdbltjSF1jMVtOSF1DKD1PKVtDSDJdYzJbY0hdYyhDbClbY0hdYyhbY0hdMiktYzNbY0hdW2NIXWMoUyg9TykoPU8pW0NIM10pW2NIXWMzQ2w=

> <s_epik_cmdline>
J2VwaWtfcHl0aG9uJywgJy1waHQnLCAnMC41JywgJy1waCcsICc3LjQnLCAnLXRuJywgJzgnLCAnLW1hJywgJzIwMCcsICctaW1hZScsICc8aW5maWxlLm1hZT4nLCAnLW9tYWUnLCAnPG91dGZpbGUubWFlPic=

> <r_lp_tautomer_probability>
1.0

> <r_epik_Ionization_Penalty>
0.0032

> <r_epik_Ionization_Penalty_Charging>
0.0

> <r_epik_Ionization_Penalty_Neutral>
0.0032

> <r_epik_State_Penalty>
0.0

> <r_epik_Charging_Adjusted_Penalty>
0.0

> <i_epik_Tot_Q>
0

> <i_epik_Tot_abs_Q>
0

> <s_lp_Force_Field>
OPLS3

> <r_lp_Energy>
35.2791

> <b_lp_Chiralities_Consistent>
1

> <s_lp_Variant>
ligprep_COVID_compounds-withfrags-smallmolecules-forvalidation.maegz:86-1

> <i_glide_original_lignum>
267

> <s_i_glide_gridfile>
glide-grid_5RGK_M-PRO_COVID

> <i_i_glide_lignum>
267

> <r_i_docking_score>
-4.48656076774516

> <r_i_glide_ligand_efficiency>
-0.154708991991212

> <r_i_glide_ligand_efficiency_sa>
-0.47531503864599

> <r_i_glide_ligand_efficiency_ln>
-1.02730864644886

> <r_glide_XP_GScore>
-4.48656076774516

> <r_i_glide_gscore>
-4.48656076774516

> <r_i_glide_evdw>
-40.2091331481934

> <r_i_glide_ecoul>
-3.61550951004028

> <r_i_glide_energy>
-43.8246426582336

> <r_i_glide_einternal>
6.58855485916138

> <r_i_glide_emodel>
-59.0288734436035

> <r_glide_XP_HBond>
-0.359618494762709

> <i_i_glide_confnum>
1

> <i_i_glide_posenum>
32

> <r_i_glide_eff_state_penalty>
0.0

> <i_glide_XP_PoseRank>
1

> <MW>
448.04

> <cLogP>
4.95

> <TPSA>
76.13

> <Rotatable Bonds>
5

> <Fraction sp3>
0.14

> <HBA>
4

> <HBD>
1

> <s_epik_Chemistry_Notes>


> <Structure ID>


> <Submission Fragments>


$$$$
ligprep_COVID_compounds-withfrags-smallmolecules-forvalidation.maegz:45
                    3D
 Structure written by MMmdl.
 66 70  0  0  1  0            999 V2000
   -1.5840    6.3054   20.0976 C   0  0  0  0  0  0
   -0.0686    6.0977   20.1687 C   0  0  0  0  0  0
    0.2275    4.7519   19.8168 O   0  0  0  0  0  0
    1.6157    4.4323   19.8299 C   0  0  1  0  0  0
    2.1440    4.1088   21.2368 C   0  0  0  0  0  0
    2.1573    2.6242   20.8516 C   0  0  2  0  0  0
    1.8427    2.9780   19.3964 C   0  0  0  0  0  0
    1.5637    1.5110   21.6649 C   0  0  0  0  0  0
    3.0551    1.4942   21.3344 C   0  0  2  0  0  0
    4.1051    1.7870   22.3407 N   0  0  0  0  0  0
    3.7310    2.5166   23.4375 C   0  0  0  0  0  0
    4.5169    2.8320   24.3344 O   0  0  0  0  0  0
    2.3373    2.8719   23.5761 C   0  0  0  0  0  0
    1.7217    4.1185   23.6184 C   0  0  0  0  0  0
    0.3657    3.8974   23.8650 C   0  0  0  0  0  0
    0.2167    2.5297   24.0142 C   0  0  0  0  0  0
    1.4159    1.9107   23.8663 O   0  0  0  0  0  0
    5.5087    1.3165   22.0438 C   0  0  1  0  0  0
    6.2141    0.5082   23.1644 C   0  0  0  0  0  0
    5.6007   -0.3739   23.7673 O   0  0  0  0  0  0
    7.5109    0.7958   23.3618 N   0  0  0  0  0  0
    8.3455    0.1939   24.4002 C   0  0  0  0  0  0
    9.2799    1.1834   25.1352 C   0  0  0  0  0  0
   10.4177    1.7215   24.2749 C   0  0  0  0  0  0
   10.3658    3.0252   23.7691 C   0  0  0  0  0  0
   11.4132    3.5200   22.9922 C   0  0  0  0  0  0
   12.5188    2.7149   22.7175 C   0  0  0  0  0  0
   12.5760    1.4141   23.2182 C   0  0  0  0  0  0
   13.6483    0.6339   22.9530 F   0  0  0  0  0  0
   11.5277    0.9178   23.9945 C   0  0  0  0  0  0
    5.6356    0.5452   20.7406 C   0  0  0  0  0  0
    5.8546   -0.8414   20.7054 C   0  0  0  0  0  0
    5.9726   -1.4973   19.4792 C   0  0  0  0  0  0
    5.8764   -0.7428   18.3098 C   0  0  0  0  0  0
    5.6816    0.6000   18.3127 N   0  0  0  0  0  0
    5.5722    1.2205   19.5147 C   0  0  0  0  0  0
   -1.8495    7.3314   20.3537 H   0  0  0  0  0  0
   -2.1041    5.6434   20.7906 H   0  0  0  0  0  0
   -1.9614    6.1040   19.0945 H   0  0  0  0  0  0
    0.4296    6.7862   19.4839 H   0  0  0  0  0  0
    0.2873    6.3202   21.1761 H   0  0  0  0  0  0
    2.1445    5.1926   19.2507 H   0  0  0  0  0  0
    3.1229    4.5354   21.4460 H   0  0  0  0  0  0
    1.4710    4.3592   22.0577 H   0  0  0  0  0  0
    0.9706    2.4743   18.9777 H   0  0  0  0  0  0
    2.6880    2.8443   18.7203 H   0  0  0  0  0  0
    1.2327    1.7355   22.6792 H   0  0  0  0  0  0
    0.9162    0.7885   21.1684 H   0  0  0  0  0  0
    3.3752    0.7713   20.5845 H   0  0  0  0  0  0
    2.2002    5.0766   23.4768 H   0  0  0  0  0  0
   -0.4089    4.6457   23.9435 H   0  0  0  0  0  0
   -0.6279    1.8915   24.2279 H   0  0  0  0  0  0
    6.0848    2.2334   21.9182 H   0  0  0  0  0  0
    7.9681    1.4407   22.7337 H   0  0  0  0  0  0
    7.6644   -0.2522   25.1254 H   0  0  0  0  0  0
    8.9238   -0.6319   23.9812 H   0  0  0  0  0  0
    8.6958    2.0223   25.5162 H   0  0  0  0  0  0
    9.6976    0.7055   26.0227 H   0  0  0  0  0  0
    9.5175    3.6598   23.9827 H   0  0  0  0  0  0
   11.3695    4.5280   22.6069 H   0  0  0  0  0  0
   13.3301    3.1002   22.1176 H   0  0  0  0  0  0
   11.5811   -0.0897   24.3810 H   0  0  0  0  0  0
    5.9292   -1.4055   21.6235 H   0  0  0  0  0  0
    6.1348   -2.5643   19.4370 H   0  0  0  0  0  0
    5.9613   -1.2146   17.3419 H   0  0  0  0  0  0
    5.4241    2.2899   19.4790 H   0  0  0  0  0  0
  1  2  1  0  0  0
  1 37  1  0  0  0
  1 38  1  0  0  0
  1 39  1  0  0  0
  2  3  1  0  0  0
  2 40  1  0  0  0
  2 41  1  0  0  0
  3  4  1  0  0  0
  4  5  1  0  0  0
  4  7  1  0  0  0
  4 42  1  0  0  0
  5  6  1  0  0  0
  5 43  1  0  0  0
  5 44  1  0  0  0
  6  7  1  0  0  0
  6  8  1  0  0  0
  6  9  1  0  0  0
  7 45  1  0  0  0
  7 46  1  0  0  0
  8  9  1  0  0  0
  8 47  1  0  0  0
  8 48  1  0  0  0
  9 10  1  0  0  0
  9 49  1  0  0  0
 10 11  1  0  0  0
 10 18  1  0  0  0
 11 12  2  0  0  0
 11 13  1  0  0  0
 13 14  2  0  0  0
 13 17  1  0  0  0
 14 15  1  0  0  0
 14 50  1  0  0  0
 15 16  2  0  0  0
 15 51  1  0  0  0
 16 17  1  0  0  0
 16 52  1  0  0  0
 18 19  1  0  0  0
 18 31  1  0  0  0
 18 53  1  0  0  0
 19 20  2  0  0  0
 19 21  1  0  0  0
 21 22  1  0  0  0
 21 54  1  0  0  0
 22 23  1  0  0  0
 22 55  1  0  0  0
 22 56  1  0  0  0
 23 24  1  0  0  0
 23 57  1  0  0  0
 23 58  1  0  0  0
 24 25  2  0  0  0
 24 30  1  0  0  0
 25 26  1  0  0  0
 25 59  1  0  0  0
 26 27  2  0  0  0
 26 60  1  0  0  0
 27 28  1  0  0  0
 27 61  1  0  0  0
 28 29  1  0  0  0
 28 30  2  0  0  0
 30 62  1  0  0  0
 31 32  2  0  0  0
 31 36  1  0  0  0
 32 33  1  0  0  0
 32 63  1  0  0  0
 33 34  2  0  0  0
 33 64  1  0  0  0
 34 35  1  0  0  0
 34 65  1  0  0  0
 35 36  2  0  0  0
 36 66  1  0  0  0
M  END
> <s_m_entry_id>
1119

> <s_m_entry_name>
Compounds-withfrags-for-validation-docking.1872

> <s_m_Source_Path>
/home/rodolpho/data/melina/maestro/glide-dock_XP_5RGK_M-PRO_VALIDATION

> <s_m_Source_File>
glide-dock_XP_5RGK_M-PRO_VALIDATION_pv.maegz

> <i_m_Source_File_Index>
1119

> <CID>
ALP-POS-b0bc6a46-4

> <Potency>
99.5

> <pIC50>
4.00218

> <Source>
Postera

> <smiles>
CCOC1CC2(C1)CC2N(C(=O)c1ccco1)C(C(=O)NCCc1cccc(F)c1)c1cccnc1

> <Outcome>
Inactive

> <StandardizerResult>
Clear Stereo (ID: ClearStereo)
Wedge Clean (ID: WedgeClean)
Mesomerize (ID: Mesomerize)
Tautomerize (ID: Tautomerize)
Aromatize (ID: Aromatize)
Add Explicit Hydrogens (ID: AddExplicitH)
Neutralize (ID: Neutralize)
Clean 2D (ID: Clean2D)

> <chiral flag>
0

> <version>
0

> <i_lp_mmshare_version>
41011

> <i_f3d_flags>
0

> <s_epik_input>
W0NIM11bQ0gyXU9bQ0BIXShbQ0gyXTEpW0NIMl1bQ0BAXTEyW0NIMl1bQ0BASF0yTihDKD1PKWMzW2NIXVtjSF1bY0hdbzMpW0NASF0oYzRbY0hdW2NIXVtjSF1uW2NIXTQpQyg9TylbTkhdW0NIMl1bQ0gyXWM1W2NIXVtjSF1bY0hdYyhGKVtjSF01

> <s_epik_cmdline>
J2VwaWtfcHl0aG9uJywgJy1waHQnLCAnMC41JywgJy1waCcsICc3LjQnLCAnLXRuJywgJzgnLCAnLW1hJywgJzIwMCcsICctaW1hZScsICc8aW5maWxlLm1hZT4nLCAnLW9tYWUnLCAnPG91dGZpbGUubWFlPic=

> <r_lp_tautomer_probability>
1.0

> <r_epik_Ionization_Penalty>
8.0E-4

> <r_epik_Ionization_Penalty_Charging>
0.0

> <r_epik_Ionization_Penalty_Neutral>
8.0E-4

> <r_epik_State_Penalty>
0.0

> <r_epik_Charging_Adjusted_Penalty>
0.0

> <i_epik_Tot_Q>
0

> <i_epik_Tot_abs_Q>
0

> <s_lp_Force_Field>
OPLS3

> <r_lp_Energy>
61.5965

> <b_lp_Chiralities_Consistent>
1

> <s_lp_Variant>
ligprep_COVID_compounds-withfrags-smallmolecules-forvalidation.maegz:45-6

> <i_glide_original_lignum>
200

> <s_i_glide_gridfile>
glide-grid_5RGK_M-PRO_COVID

> <i_i_glide_lignum>
200

> <r_i_docking_score>
-4.48624794204371

> <r_i_glide_ligand_efficiency>
-0.124617998390103

> <r_i_glide_ligand_efficiency_sa>
-0.411479564095473

> <r_i_glide_ligand_efficiency_ln>
-0.978778096541439

> <r_glide_XP_GScore>
-4.48624794204371

> <r_i_glide_gscore>
-4.48624794204371

> <r_i_glide_evdw>
-37.1063003540039

> <r_i_glide_ecoul>
-6.99626970291138

> <r_i_glide_energy>
-44.1025700569153

> <r_i_glide_einternal>
12.3331995010376

> <r_i_glide_emodel>
-57.6839176956947

> <r_glide_XP_HBond>
-0.586261508643422

> <i_i_glide_confnum>
1

> <i_i_glide_posenum>
12

> <r_i_glide_eff_state_penalty>
0.0

> <i_glide_XP_PoseRank>
1

> <MW>
491.22

> <cLogP>
4.31

> <TPSA>
84.67

> <Rotatable Bonds>
10

> <Fraction sp3>
0.39

> <HBA>
5

> <HBD>
1

> <s_epik_Chemistry_Notes>


> <Structure ID>


> <Submission Fragments>


$$$$
ligprep_COVID_compounds-withfrags-smallmolecules-forvalidation.maegz:50
                    3D
 Structure written by MMmdl.
 32 34  0  0  1  0            999 V2000
    9.5750   -6.1680   25.7710 N   0  0  0  0  0  0
    8.5134   -5.3247   25.4844 C   0  0  0  0  0  0
    8.4352   -4.7495   24.3246 N   0  0  0  0  0  0
    7.3659   -3.9112   24.3775 N   0  0  0  0  0  0
    7.1753   -3.0688   23.2349 C   0  0  0  0  0  0
    7.6592   -3.4512   22.1707 O   0  0  0  0  0  0
    6.5226   -1.6946   23.4220 C   0  0  0  0  0  0
    6.3672   -0.8125   22.1902 C   0  0  0  0  0  0
    6.3318    0.5727   22.4213 C   0  0  0  0  0  0
    6.1296    1.4588   21.3580 C   0  0  0  0  0  0
    5.9757    0.9860   20.0448 C   0  0  0  0  0  0
    6.0452   -0.3928   19.7946 C   0  0  0  0  0  0
    5.9749   -0.9632   18.1711 Cl  0  0  0  0  0  0
    6.1991   -1.2944   20.8657 C   0  0  0  0  0  0
    6.6779   -4.0259   25.5934 C   0  0  0  0  0  0
    5.5009   -3.4468   26.1205 C   0  0  0  0  0  0
    5.0656   -3.7992   27.4096 C   0  0  0  0  0  0
    5.8051   -4.7203   28.1703 C   0  0  0  0  0  0
    6.9810   -5.2934   27.6514 C   0  0  0  0  0  0
    7.6723   -6.1636   28.4196 F   0  0  0  0  0  0
    7.4338   -4.9707   26.3486 C   0  0  0  0  0  0
    9.5994   -6.6999   26.6411 H   0  0  0  0  0  0
   10.2547   -6.4349   25.0694 H   0  0  0  0  0  0
    5.5479   -1.7637   23.8765 H   0  0  0  0  0  0
    7.1423   -1.1635   24.1456 H   0  0  0  0  0  0
    6.4483    0.9671   23.4204 H   0  0  0  0  0  0
    6.1175    2.5158   21.5618 H   0  0  0  0  0  0
    5.8326    1.6820   19.2314 H   0  0  0  0  0  0
    6.1956   -2.3494   20.6415 H   0  0  0  0  0  0
    4.9025   -2.7536   25.5542 H   0  0  0  0  0  0
    4.1639   -3.3648   27.8167 H   0  0  0  0  0  0
    5.4753   -4.9880   29.1634 H   0  0  0  0  0  0
  1  2  1  0  0  0
  1 22  1  0  0  0
  1 23  1  0  0  0
  2  3  2  0  0  0
  2 21  1  0  0  0
  3  4  1  0  0  0
  4  5  1  0  0  0
  4 15  1  0  0  0
  5  6  2  0  0  0
  5  7  1  0  0  0
  7  8  1  0  0  0
  7 24  1  0  0  0
  7 25  1  0  0  0
  8  9  2  0  0  0
  8 14  1  0  0  0
  9 10  1  0  0  0
  9 26  1  0  0  0
 10 11  2  0  0  0
 10 27  1  0  0  0
 11 12  1  0  0  0
 11 28  1  0  0  0
 12 13  1  0  0  0
 12 14  2  0  0  0
 14 29  1  0  0  0
 15 16  2  0  0  0
 15 21  1  0  0  0
 16 17  1  0  0  0
 16 30  1  0  0  0
 17 18  2  0  0  0
 17 31  1  0  0  0
 18 19  1  0  0  0
 18 32  1  0  0  0
 19 20  1  0  0  0
 19 21  2  0  0  0
M  END
> <s_m_entry_id>
1120

> <s_m_entry_name>
Compounds-withfrags-for-validation-docking.1867

> <s_m_Source_Path>
/home/rodolpho/data/melina/maestro/glide-dock_XP_5RGK_M-PRO_VALIDATION

> <s_m_Source_File>
glide-dock_XP_5RGK_M-PRO_VALIDATION_pv.maegz

> <i_m_Source_File_Index>
1120

> <CID>
MAT-POS-0c8fa4a7-4

> <Potency>
99.5

> <pIC50>
4.00218

> <Source>
Postera

> <smiles>
Nc1nn(C(=O)Cc2cccc(Cl)c2)c2cccc(F)c12

> <Outcome>
Inactive

> <StandardizerResult>
Clear Stereo (ID: ClearStereo)
Wedge Clean (ID: WedgeClean)
Mesomerize (ID: Mesomerize)
Tautomerize (ID: Tautomerize)
Aromatize (ID: Aromatize)
Add Explicit Hydrogens (ID: AddExplicitH)
Neutralize (ID: Neutralize)
Clean 2D (ID: Clean2D)

> <chiral flag>
0

> <version>
0

> <i_lp_mmshare_version>
41011

> <i_f3d_flags>
0

> <s_epik_input>
W2NIXTFbY0hdW2NIXWMoRiljKGMxMiljKFtOSDJdKW5uMkMoPU8pW0NIMl1jM1tjSF1bY0hdW2NIXWMoQ2wpW2NIXTM=

> <s_epik_cmdline>
J2VwaWtfcHl0aG9uJywgJy1waHQnLCAnMC41JywgJy1waCcsICc3LjQnLCAnLXRuJywgJzgnLCAnLW1hJywgJzIwMCcsICctaW1hZScsICc8aW5maWxlLm1hZT4nLCAnLW9tYWUnLCAnPG91dGZpbGUubWFlPic=

> <r_lp_tautomer_probability>
1.0

> <r_epik_Ionization_Penalty>
5.0E-4

> <r_epik_Ionization_Penalty_Charging>
0.0

> <r_epik_Ionization_Penalty_Neutral>
5.0E-4

> <r_epik_State_Penalty>
0.0

> <r_epik_Charging_Adjusted_Penalty>
0.0

> <i_epik_Tot_Q>
0

> <i_epik_Tot_abs_Q>
0

> <s_lp_Force_Field>
OPLS3

> <r_lp_Energy>
21.3979

> <b_lp_Chiralities_Consistent>
1

> <s_lp_Variant>
ligprep_COVID_compounds-withfrags-smallmolecules-forvalidation.maegz:50-1

> <i_glide_original_lignum>
216

> <s_i_glide_gridfile>
glide-grid_5RGK_M-PRO_COVID

> <i_i_glide_lignum>
216

> <r_i_docking_score>
-4.48579750977412

> <r_i_glide_ligand_efficiency>
-0.213609405227339

> <r_i_glide_ligand_efficiency_sa>
-0.589332151786019

> <r_i_glide_ligand_efficiency_ln>
-1.10910436988429

> <r_glide_XP_GScore>
-4.48579750977412

> <r_i_glide_gscore>
-4.48579750977412

> <r_i_glide_evdw>
-28.9962711334229

> <r_i_glide_ecoul>
-7.29538583755493

> <r_i_glide_energy>
-36.2916569709778

> <r_i_glide_einternal>
4.94439601898193

> <r_i_glide_emodel>
-44.9777838319455

> <r_glide_XP_HBond>
-1.00517021610352

> <i_i_glide_confnum>
1

> <i_i_glide_posenum>
39

> <r_i_glide_eff_state_penalty>
0.0

> <i_glide_XP_PoseRank>
1

> <MW>
303.06

> <cLogP>
3.29

> <TPSA>
60.91

> <Rotatable Bonds>
2

> <Fraction sp3>
0.07

> <HBA>
4

> <HBD>
1

> <s_epik_Chemistry_Notes>


> <Structure ID>


> <Submission Fragments>


$$$$
ligprep_COVID_compounds-withfrags-smallmolecules-forvalidation.maegz:33
                    3D
 Structure written by MMmdl.
 59 62  0  0  1  0            999 V2000
    1.1279   -3.9655   31.6656 C   0  0  0  0  0  0
    1.5775   -5.0688   30.8930 O   0  0  0  0  0  0
    2.6136   -4.8621   30.0077 C   0  0  0  0  0  0
    3.2206   -3.6024   29.7734 C   0  0  0  0  0  0
    4.2747   -3.4794   28.8479 C   0  0  0  0  0  0
    4.7472   -4.6119   28.1546 C   0  0  0  0  0  0
    5.8063   -4.4766   27.2114 N   0  0  0  0  0  0
    7.0013   -5.0784   27.4861 C   0  0  0  0  0  0
    7.1755   -5.7641   28.4952 O   0  0  0  0  0  0
    8.1468   -4.8931   26.5697 C   0  0  0  0  0  0
    9.0057   -5.8038   26.0217 C   0  0  0  0  0  0
    9.9290   -5.0766   25.2241 C   0  0  0  0  0  0
    9.5756   -3.7674   25.3548 C   0  0  0  0  0  0
    8.5294   -3.6377   26.2069 O   0  0  0  0  0  0
    5.4181   -3.8200   25.9344 C   0  0  1  0  0  0
    5.9246   -2.3668   25.7532 C   0  0  0  0  0  0
    6.4762   -1.7971   26.6961 O   0  0  0  0  0  0
    5.7108   -1.7639   24.5707 N   0  0  0  0  0  0
    6.2085   -0.4515   24.1786 C   0  0  0  0  0  0
    7.0615   -0.5182   22.9089 C   0  0  0  0  0  0
    6.3159   -0.2568   21.6077 C   0  0  0  0  0  0
    5.6568    0.9742   21.3963 C   0  0  0  0  0  0
    5.0732    1.2619   20.1473 C   0  0  0  0  0  0
    5.1752    0.3387   19.0906 C   0  0  0  0  0  0
    5.8317   -0.8880   19.2949 C   0  0  0  0  0  0
    5.9550   -1.7631   18.2716 F   0  0  0  0  0  0
    6.3750   -1.1964   20.5568 C   0  0  0  0  0  0
    5.6379   -4.7047   24.7267 C   0  0  0  0  0  0
    6.6795   -4.5801   23.7717 C   0  0  0  0  0  0
    6.7776   -5.4854   22.7004 C   0  0  0  0  0  0
    5.7938   -6.4791   22.5735 C   0  0  0  0  0  0
    4.7750   -6.6103   23.4442 N   0  0  0  0  0  0
    4.7316   -5.7645   24.4930 C   0  0  0  0  0  0
    4.1409   -5.8674   28.3772 C   0  0  0  0  0  0
    3.0834   -5.9863   29.2980 C   0  0  0  0  0  0
    0.3248   -4.2913   32.3278 H   0  0  0  0  0  0
    0.7299   -3.1716   31.0324 H   0  0  0  0  0  0
    1.9276   -3.5651   32.2898 H   0  0  0  0  0  0
    2.8972   -2.7131   30.2923 H   0  0  0  0  0  0
    4.7278   -2.5127   28.6832 H   0  0  0  0  0  0
    8.9664   -6.8745   26.1713 H   0  0  0  0  0  0
   10.7466   -5.4627   24.6321 H   0  0  0  0  0  0
    9.9735   -2.8447   24.9597 H   0  0  0  0  0  0
    4.3389   -3.6631   25.9881 H   0  0  0  0  0  0
    5.1975   -2.2872   23.8637 H   0  0  0  0  0  0
    5.3828    0.2520   24.0834 H   0  0  0  0  0  0
    6.8562   -0.0720   24.9692 H   0  0  0  0  0  0
    7.8457    0.2369   22.9725 H   0  0  0  0  0  0
    7.5742   -1.4789   22.8782 H   0  0  0  0  0  0
    5.6214    1.7217   22.1758 H   0  0  0  0  0  0
    4.5805    2.2113   19.9909 H   0  0  0  0  0  0
    4.7518    0.5697   18.1240 H   0  0  0  0  0  0
    6.8912   -2.1354   20.6939 H   0  0  0  0  0  0
    7.4136   -3.7950   23.8503 H   0  0  0  0  0  0
    7.5846   -5.4063   21.9884 H   0  0  0  0  0  0
    5.8403   -7.1961   21.7709 H   0  0  0  0  0  0
    3.9088   -5.9248   25.1743 H   0  0  0  0  0  0
    4.4897   -6.7433   27.8483 H   0  0  0  0  0  0
    2.6304   -6.9524   29.4650 H   0  0  0  0  0  0
  1  2  1  0  0  0
  1 36  1  0  0  0
  1 37  1  0  0  0
  1 38  1  0  0  0
  2  3  1  0  0  0
  3  4  2  0  0  0
  3 35  1  0  0  0
  4  5  1  0  0  0
  4 39  1  0  0  0
  5  6  2  0  0  0
  5 40  1  0  0  0
  6  7  1  0  0  0
  6 34  1  0  0  0
  7  8  1  0  0  0
  7 15  1  0  0  0
  8  9  2  0  0  0
  8 10  1  0  0  0
 10 11  2  0  0  0
 10 14  1  0  0  0
 11 12  1  0  0  0
 11 41  1  0  0  0
 12 13  2  0  0  0
 12 42  1  0  0  0
 13 14  1  0  0  0
 13 43  1  0  0  0
 15 16  1  0  0  0
 15 28  1  0  0  0
 15 44  1  0  0  0
 16 17  2  0  0  0
 16 18  1  0  0  0
 18 19  1  0  0  0
 18 45  1  0  0  0
 19 20  1  0  0  0
 19 46  1  0  0  0
 19 47  1  0  0  0
 20 21  1  0  0  0
 20 48  1  0  0  0
 20 49  1  0  0  0
 21 22  2  0  0  0
 21 27  1  0  0  0
 22 23  1  0  0  0
 22 50  1  0  0  0
 23 24  2  0  0  0
 23 51  1  0  0  0
 24 25  1  0  0  0
 24 52  1  0  0  0
 25 26  1  0  0  0
 25 27  2  0  0  0
 27 53  1  0  0  0
 28 29  2  0  0  0
 28 33  1  0  0  0
 29 30  1  0  0  0
 29 54  1  0  0  0
 30 31  2  0  0  0
 30 55  1  0  0  0
 31 32  1  0  0  0
 31 56  1  0  0  0
 32 33  2  0  0  0
 33 57  1  0  0  0
 34 35  2  0  0  0
 34 58  1  0  0  0
 35 59  1  0  0  0
M  END
> <s_m_entry_id>
1133

> <s_m_entry_name>
Compounds-withfrags-for-validation-docking.1884

> <s_m_Source_Path>
/home/rodolpho/data/melina/maestro/glide-dock_XP_5RGK_M-PRO_VALIDATION

> <s_m_Source_File>
glide-dock_XP_5RGK_M-PRO_VALIDATION_pv.maegz

> <i_m_Source_File_Index>
1133

> <CID>
ALP-POS-b0bc6a46-22

> <Potency>
30.4977

> <pIC50>
4.51573

> <Source>
Postera

> <smiles>
COc1ccc(N(C(=O)c2ccco2)C(C(=O)NCCc2cccc(F)c2)c2cccnc2)cc1

> <Outcome>
Inactive

> <StandardizerResult>
Clear Stereo (ID: ClearStereo)
Wedge Clean (ID: WedgeClean)
Mesomerize (ID: Mesomerize)
Tautomerize (ID: Tautomerize)
Aromatize (ID: Aromatize)
Add Explicit Hydrogens (ID: AddExplicitH)
Neutralize (ID: Neutralize)
Clean 2D (ID: Clean2D)

> <chiral flag>
0

> <version>
0

> <i_lp_mmshare_version>
41011

> <i_f3d_flags>
0

> <s_epik_input>
W0NIM11PYzFbY0hdW2NIXWMoW2NIXVtjSF0xKU4oQyg9TyljMltjSF1bY0hdW2NIXW8yKVtDQEhdKGMzW2NIXVtjSF1bY0hdbltjSF0zKUMoPU8pW05IXVtDSDJdW0NIMl1jNFtjSF1bY0hdW2NIXWMoRilbY0hdNA==

> <s_epik_cmdline>
J2VwaWtfcHl0aG9uJywgJy1waHQnLCAnMC41JywgJy1waCcsICc3LjQnLCAnLXRuJywgJzgnLCAnLW1hJywgJzIwMCcsICctaW1hZScsICc8aW5maWxlLm1hZT4nLCAnLW9tYWUnLCAnPG91dGZpbGUubWFlPic=

> <r_lp_tautomer_probability>
1.0

> <r_epik_Ionization_Penalty>
6.0E-4

> <r_epik_Ionization_Penalty_Charging>
0.0

> <r_epik_Ionization_Penalty_Neutral>
6.0E-4

> <r_epik_State_Penalty>
0.0

> <r_epik_Charging_Adjusted_Penalty>
0.0

> <i_epik_Tot_Q>
0

> <i_epik_Tot_abs_Q>
0

> <s_lp_Force_Field>
OPLS3

> <r_lp_Energy>
74.9401

> <b_lp_Chiralities_Consistent>
1

> <s_lp_Variant>
ligprep_COVID_compounds-withfrags-smallmolecules-forvalidation.maegz:33-1

> <i_glide_original_lignum>
167

> <s_i_glide_gridfile>
glide-grid_5RGK_M-PRO_COVID

> <i_i_glide_lignum>
167

> <r_i_docking_score>
-4.47266647515879

> <r_i_glide_ligand_efficiency>
-0.127790470718823

> <r_i_glide_ligand_efficiency_sa>
-0.41801110303609

> <r_i_glide_ligand_efficiency_ln>
-0.981849556781488

> <r_glide_XP_GScore>
-4.47266647515879

> <r_i_glide_gscore>
-4.47266647515879

> <r_i_glide_evdw>
-38.6649284362793

> <r_i_glide_ecoul>
-6.36379671096802

> <r_i_glide_energy>
-45.0287251472473

> <r_i_glide_einternal>
0.0

> <r_i_glide_emodel>
-54.5459843125789

> <r_glide_XP_HBond>
-0.7

> <i_i_glide_confnum>
1

> <i_i_glide_posenum>
45

> <r_i_glide_eff_state_penalty>
0.0

> <i_glide_XP_PoseRank>
1

> <MW>
473.18

> <cLogP>
4.57

> <TPSA>
84.67

> <Rotatable Bonds>
9

> <Fraction sp3>
0.15

> <HBA>
5

> <HBD>
1

> <s_epik_Chemistry_Notes>


> <Structure ID>


> <Submission Fragments>


$$$$
ligprep_COVID_compounds-withfrags-smallmolecules-forvalidation.maegz:42
                    3D
 Structure written by MMmdl.
 67 70  0  0  1  0            999 V2000
    0.6646   -0.9376   25.2428 C   0  0  0  0  0  0
    1.9465   -0.3510   25.8599 C   0  0  0  0  0  0
    1.8746   -0.2017   27.3887 C   0  0  0  0  0  0
    2.4791    0.8709   25.0908 C   0  0  0  0  0  0
    3.5199    0.5997   24.1687 C   0  0  0  0  0  0
    4.1076    1.6113   23.3831 C   0  0  0  0  0  0
    5.1264    1.2896   22.4299 N   0  0  0  0  0  0
    4.7058    1.0243   21.1571 C   0  0  0  0  0  0
    3.5283    1.1775   20.8229 O   0  0  0  0  0  0
    5.5944    0.4056   20.1384 C   0  0  0  0  0  0
    6.8684    0.6202   19.6901 C   0  0  0  0  0  0
    7.1243   -0.2817   18.6274 C   0  0  0  0  0  0
    5.9659   -0.9715   18.4562 C   0  0  0  0  0  0
    5.0413   -0.5616   19.3649 O   0  0  0  0  0  0
    6.5542    1.3282   22.8674 C   0  0  1  0  0  0
    6.9773    2.6555   23.5346 C   0  0  0  0  0  0
    6.4476    3.0436   24.5698 O   0  0  0  0  0  0
    7.9751    3.3353   22.9568 N   0  0  0  0  0  0
    8.4919    4.6089   23.4305 C   0  0  0  0  0  0
    9.6522    4.3917   24.4080 C   0  0  0  0  0  0
   10.8656    3.7507   23.7518 C   0  0  0  0  0  0
   11.1477    2.3757   23.9097 C   0  0  0  0  0  0
   12.3051    1.8202   23.3303 C   0  0  0  0  0  0
   13.1723    2.6331   22.5760 C   0  0  0  0  0  0
   12.8806    3.9971   22.3912 C   0  0  0  0  0  0
   13.7023    4.7826   21.6588 F   0  0  0  0  0  0
   11.7345    4.5531   22.9849 C   0  0  0  0  0  0
    6.9841    0.1442   23.7145 C   0  0  0  0  0  0
    7.9763    0.1958   24.7341 C   0  0  0  0  0  0
    8.3751   -0.9661   25.4203 C   0  0  0  0  0  0
    7.7653   -2.1820   25.0743 C   0  0  0  0  0  0
    6.8372   -2.2769   24.1058 N   0  0  0  0  0  0
    6.4748   -1.1506   23.4558 C   0  0  0  0  0  0
    3.6381    2.9311   23.5131 C   0  0  0  0  0  0
    2.6195    3.2276   24.4327 C   0  0  0  0  0  0
    2.0192    2.2215   25.2291 C   0  0  0  0  0  0
    0.9360    2.6766   26.2135 C   0  0  0  0  0  0
    0.4758    3.8896   25.9018 F   0  0  0  0  0  0
   -0.1195    1.8693   26.2262 F   0  0  0  0  0  0
    1.4548    2.7544   27.4373 F   0  0  0  0  0  0
    0.8001   -1.1441   24.1803 H   0  0  0  0  0  0
   -0.1938   -0.2765   25.3312 H   0  0  0  0  0  0
    0.3969   -1.8757   25.7292 H   0  0  0  0  0  0
    2.6969   -1.1319   25.7246 H   0  0  0  0  0  0
    2.7941    0.2259   27.7893 H   0  0  0  0  0  0
    1.7472   -1.1789   27.8570 H   0  0  0  0  0  0
    1.0361    0.4023   27.7236 H   0  0  0  0  0  0
    3.8711   -0.4143   24.0440 H   0  0  0  0  0  0
    7.5736    1.3266   20.0737 H   0  0  0  0  0  0
    8.0402   -0.4105   18.0714 H   0  0  0  0  0  0
    5.6434   -1.7496   17.7773 H   0  0  0  0  0  0
    7.1929    1.2818   22.0140 H   0  0  0  0  0  0
    8.3718    2.9604   22.1043 H   0  0  0  0  0  0
    8.8180    5.1985   22.5734 H   0  0  0  0  0  0
    7.6988    5.1869   23.9072 H   0  0  0  0  0  0
    9.9529    5.3507   24.8336 H   0  0  0  0  0  0
    9.3177    3.7797   25.2476 H   0  0  0  0  0  0
   10.4971    1.7496   24.5000 H   0  0  0  0  0  0
   12.5381    0.7766   23.4778 H   0  0  0  0  0  0
   14.0788    2.2116   22.1695 H   0  0  0  0  0  0
   11.5206    5.6017   22.8466 H   0  0  0  0  0  0
    8.4465    1.1230   25.0185 H   0  0  0  0  0  0
    9.1214   -0.9266   26.1978 H   0  0  0  0  0  0
    8.0357   -3.1000   25.5768 H   0  0  0  0  0  0
    5.7566   -1.2946   22.6630 H   0  0  0  0  0  0
    4.0731    3.7248   22.9237 H   0  0  0  0  0  0
    2.3061    4.2574   24.5162 H   0  0  0  0  0  0
  1  2  1  0  0  0
  1 41  1  0  0  0
  1 42  1  0  0  0
  1 43  1  0  0  0
  2  3  1  0  0  0
  2  4  1  0  0  0
  2 44  1  0  0  0
  3 45  1  0  0  0
  3 46  1  0  0  0
  3 47  1  0  0  0
  4  5  2  0  0  0
  4 36  1  0  0  0
  5  6  1  0  0  0
  5 48  1  0  0  0
  6  7  1  0  0  0
  6 34  2  0  0  0
  7  8  1  0  0  0
  7 15  1  0  0  0
  8  9  2  0  0  0
  8 10  1  0  0  0
 10 11  2  0  0  0
 10 14  1  0  0  0
 11 12  1  0  0  0
 11 49  1  0  0  0
 12 13  2  0  0  0
 12 50  1  0  0  0
 13 14  1  0  0  0
 13 51  1  0  0  0
 15 16  1  0  0  0
 15 28  1  0  0  0
 15 52  1  0  0  0
 16 17  2  0  0  0
 16 18  1  0  0  0
 18 19  1  0  0  0
 18 53  1  0  0  0
 19 20  1  0  0  0
 19 54  1  0  0  0
 19 55  1  0  0  0
 20 21  1  0  0  0
 20 56  1  0  0  0
 20 57  1  0  0  0
 21 22  2  0  0  0
 21 27  1  0  0  0
 22 23  1  0  0  0
 22 58  1  0  0  0
 23 24  2  0  0  0
 23 59  1  0  0  0
 24 25  1  0  0  0
 24 60  1  0  0  0
 25 26  1  0  0  0
 25 27  2  0  0  0
 27 61  1  0  0  0
 28 29  2  0  0  0
 28 33  1  0  0  0
 29 30  1  0  0  0
 29 62  1  0  0  0
 30 31  2  0  0  0
 30 63  1  0  0  0
 31 32  1  0  0  0
 31 64  1  0  0  0
 32 33  2  0  0  0
 33 65  1  0  0  0
 34 35  1  0  0  0
 34 66  1  0  0  0
 35 36  2  0  0  0
 35 67  1  0  0  0
 36 37  1  0  0  0
 37 38  1  0  0  0
 37 39  1  0  0  0
 37 40  1  0  0  0
M  END
> <s_m_entry_id>
1149

> <s_m_entry_name>
Compounds-withfrags-for-validation-docking.1875

> <s_m_Source_Path>
/home/rodolpho/data/melina/maestro/glide-dock_XP_5RGK_M-PRO_VALIDATION

> <s_m_Source_File>
glide-dock_XP_5RGK_M-PRO_VALIDATION_pv.maegz

> <i_m_Source_File_Index>
1149

> <CID>
ALP-POS-b0bc6a46-11

> <Potency>
99.5

> <pIC50>
4.00218

> <Source>
Postera

> <smiles>
CC(C)c1cc(N(C(=O)c2ccco2)C(C(=O)NCCc2cccc(F)c2)c2cccnc2)ccc1C(F)(F)F

> <Outcome>
Inactive

> <StandardizerResult>
Clear Stereo (ID: ClearStereo)
Wedge Clean (ID: WedgeClean)
Mesomerize (ID: Mesomerize)
Tautomerize (ID: Tautomerize)
Aromatize (ID: Aromatize)
Add Explicit Hydrogens (ID: AddExplicitH)
Neutralize (ID: Neutralize)
Clean 2D (ID: Clean2D)

> <chiral flag>
0

> <version>
0

> <i_lp_mmshare_version>
41011

> <i_f3d_flags>
0

> <s_epik_input>
bzFbY0hdW2NIXVtjSF1jMUMoPU8pTihjKFtjSF1jMltDSF0oW0NIM10pW0NIM10pW2NIXVtjSF1jMkMoRikoRilGKVtDQEhdKGMzW2NIXVtjSF1bY0hdbltjSF0zKUMoPU8pW05IXVtDSDJdW0NIMl1jNFtjSF1bY0hdW2NIXWMoRilbY0hdNA==

> <s_epik_cmdline>
J2VwaWtfcHl0aG9uJywgJy1waHQnLCAnMC41JywgJy1waCcsICc3LjQnLCAnLXRuJywgJzgnLCAnLW1hJywgJzIwMCcsICctaW1hZScsICc8aW5maWxlLm1hZT4nLCAnLW9tYWUnLCAnPG91dGZpbGUubWFlPic=

> <r_lp_tautomer_probability>
1.0

> <r_epik_Ionization_Penalty>
6.0E-4

> <r_epik_Ionization_Penalty_Charging>
0.0

> <r_epik_Ionization_Penalty_Neutral>
6.0E-4

> <r_epik_State_Penalty>
0.0

> <r_epik_Charging_Adjusted_Penalty>
0.0

> <i_epik_Tot_Q>
0

> <i_epik_Tot_abs_Q>
0

> <s_lp_Force_Field>
OPLS3

> <r_lp_Energy>
75.1091

> <b_lp_Chiralities_Consistent>
1

> <s_lp_Variant>
ligprep_COVID_compounds-withfrags-smallmolecules-forvalidation.maegz:42-1

> <i_glide_original_lignum>
189

> <s_i_glide_gridfile>
glide-grid_5RGK_M-PRO_COVID

> <i_i_glide_lignum>
189

> <r_i_docking_score>
-4.46242551855702

> <r_i_glide_ligand_efficiency>
-0.111560637963926

> <r_i_glide_ligand_efficiency_sa>
-0.381532014559298

> <r_i_glide_ligand_efficiency_ln>
-0.951704039787539

> <r_glide_XP_GScore>
-4.46242551855702

> <r_i_glide_gscore>
-4.46242551855702

> <r_i_glide_evdw>
-38.2294921875

> <r_i_glide_ecoul>
-6.64903402328491

> <r_i_glide_energy>
-44.8785262107849

> <r_i_glide_einternal>
4.45165300369263

> <r_i_glide_emodel>
-61.8129889188935

> <r_glide_XP_HBond>
-0.57503285172777

> <i_i_glide_confnum>
1

> <i_i_glide_posenum>
1

> <r_i_glide_eff_state_penalty>
0.0

> <i_glide_XP_PoseRank>
1

> <MW>
553.2

> <cLogP>
6.7

> <TPSA>
75.44

> <Rotatable Bonds>
9

> <Fraction sp3>
0.23

> <HBA>
4

> <HBD>
1

> <s_epik_Chemistry_Notes>


> <Structure ID>


> <Submission Fragments>


$$$$
ligprep_COVID_compounds-withfrags-smallmolecules-forvalidation.maegz:37
                    3D
 Structure written by MMmdl.
 67 70  0  0  1  0            999 V2000
    5.8386   -0.5714   17.4238 C   0  0  0  0  0  0
    5.9198   -0.9057   18.8051 O   0  0  0  0  0  0
    5.3237   -0.0806   19.7429 C   0  0  0  0  0  0
    4.5464    1.0428   19.4086 C   0  0  0  0  0  0
    3.9765    1.8361   20.4011 C   0  0  0  0  0  0
    4.1831    1.5241   21.7448 C   0  0  0  0  0  0
    3.5882    2.3168   22.7488 N   0  0  0  0  0  0
    4.3040    2.7161   23.8583 C   0  0  0  0  0  0
    3.7654    3.0348   24.9210 O   0  0  0  0  0  0
    5.7519    2.7736   23.7955 C   0  0  0  0  0  0
    6.6798    3.7449   24.1706 C   0  0  0  0  0  0
    7.9484    3.1894   24.0028 C   0  0  0  0  0  0
    7.7476    1.8824   23.5978 C   0  0  0  0  0  0
    6.4186    1.6214   23.5065 O   0  0  0  0  0  0
    2.0973    2.4327   22.6796 C   0  0  1  0  0  0
    1.6101    2.3955   21.2049 C   0  0  0  0  0  0
    0.9036    1.4680   20.8071 O   0  0  0  0  0  0
    1.9957    3.4266   20.4346 N   0  0  0  0  0  0
    1.7320    3.5266   19.0023 C   0  0  0  0  0  0
    1.6717    4.9867   18.5153 C   0  0  0  0  0  0
    2.0010    5.1286   17.0378 C   0  0  0  0  0  0
    3.2125    5.7030   16.6389 C   0  0  0  0  0  0
    3.5163    5.8303   15.2829 C   0  0  0  0  0  0
    2.6110    5.3838   14.3199 C   0  0  0  0  0  0
    1.4016    4.8096   14.7124 C   0  0  0  0  0  0
    0.5250    4.3755   13.7790 F   0  0  0  0  0  0
    1.0969    4.6823   16.0682 C   0  0  0  0  0  0
    1.3589    1.5250   23.6677 C   0  0  0  0  0  0
    0.0771    0.9956   23.4272 C   0  0  0  0  0  0
   -0.5449    0.1917   24.3838 C   0  0  0  0  0  0
    0.1265   -0.0604   25.5788 C   0  0  0  0  0  0
    1.3528    0.4470   25.8539 N   0  0  0  0  0  0
    1.9406    1.2252   24.9104 C   0  0  0  0  0  0
    4.9411    0.4005   22.0891 C   0  0  0  0  0  0
    5.5201   -0.4060   21.0947 C   0  0  0  0  0  0
    6.2862   -1.5259   21.3687 O   0  0  0  0  0  0
    6.7970   -1.7282   22.6840 C   0  0  0  0  0  0
    7.5635   -3.0565   22.7158 C   0  0  0  0  0  0
    6.6753   -4.1251   22.9684 O   0  0  0  0  0  0
    6.3775   -1.3188   16.8415 H   0  0  0  0  0  0
    6.2955    0.3978   17.2176 H   0  0  0  0  0  0
    4.8052   -0.5640   17.0743 H   0  0  0  0  0  0
    4.3720    1.3178   18.3797 H   0  0  0  0  0  0
    3.3798    2.6931   20.1236 H   0  0  0  0  0  0
    6.4709    4.7414   24.5280 H   0  0  0  0  0  0
    8.8968    3.6734   24.1830 H   0  0  0  0  0  0
    8.4130    1.0632   23.3691 H   0  0  0  0  0  0
    1.8637    3.4478   23.0082 H   0  0  0  0  0  0
    2.5485    4.1648   20.8462 H   0  0  0  0  0  0
    2.4778    2.9653   18.4347 H   0  0  0  0  0  0
    0.7770    3.0382   18.8050 H   0  0  0  0  0  0
    0.6771    5.3962   18.6984 H   0  0  0  0  0  0
    2.3578    5.6091   19.0929 H   0  0  0  0  0  0
    3.9199    6.0506   17.3782 H   0  0  0  0  0  0
    4.4528    6.2744   14.9791 H   0  0  0  0  0  0
    2.8472    5.4822   13.2705 H   0  0  0  0  0  0
    0.1586    4.2359   16.3636 H   0  0  0  0  0  0
   -0.4497    1.1935   22.5061 H   0  0  0  0  0  0
   -1.5247   -0.2243   24.2022 H   0  0  0  0  0  0
   -0.3223   -0.6781   26.3428 H   0  0  0  0  0  0
    2.9132    1.6144   25.1736 H   0  0  0  0  0  0
    5.0730    0.1711   23.1361 H   0  0  0  0  0  0
    7.4593   -0.9048   22.9587 H   0  0  0  0  0  0
    5.9771   -1.7618   23.4021 H   0  0  0  0  0  0
    8.0645   -3.2351   21.7637 H   0  0  0  0  0  0
    8.3289   -3.0419   23.4923 H   0  0  0  0  0  0
    5.7859   -3.7717   23.0477 H   0  0  0  0  0  0
  1  2  1  0  0  0
  1 40  1  0  0  0
  1 41  1  0  0  0
  1 42  1  0  0  0
  2  3  1  0  0  0
  3  4  2  0  0  0
  3 35  1  0  0  0
  4  5  1  0  0  0
  4 43  1  0  0  0
  5  6  2  0  0  0
  5 44  1  0  0  0
  6  7  1  0  0  0
  6 34  1  0  0  0
  7  8  1  0  0  0
  7 15  1  0  0  0
  8  9  2  0  0  0
  8 10  1  0  0  0
 10 11  2  0  0  0
 10 14  1  0  0  0
 11 12  1  0  0  0
 11 45  1  0  0  0
 12 13  2  0  0  0
 12 46  1  0  0  0
 13 14  1  0  0  0
 13 47  1  0  0  0
 15 16  1  0  0  0
 15 28  1  0  0  0
 15 48  1  0  0  0
 16 17  2  0  0  0
 16 18  1  0  0  0
 18 19  1  0  0  0
 18 49  1  0  0  0
 19 20  1  0  0  0
 19 50  1  0  0  0
 19 51  1  0  0  0
 20 21  1  0  0  0
 20 52  1  0  0  0
 20 53  1  0  0  0
 21 22  2  0  0  0
 21 27  1  0  0  0
 22 23  1  0  0  0
 22 54  1  0  0  0
 23 24  2  0  0  0
 23 55  1  0  0  0
 24 25  1  0  0  0
 24 56  1  0  0  0
 25 26  1  0  0  0
 25 27  2  0  0  0
 27 57  1  0  0  0
 28 29  2  0  0  0
 28 33  1  0  0  0
 29 30  1  0  0  0
 29 58  1  0  0  0
 30 31  2  0  0  0
 30 59  1  0  0  0
 31 32  1  0  0  0
 31 60  1  0  0  0
 32 33  2  0  0  0
 33 61  1  0  0  0
 34 35  2  0  0  0
 34 62  1  0  0  0
 35 36  1  0  0  0
 36 37  1  0  0  0
 37 38  1  0  0  0
 37 63  1  0  0  0
 37 64  1  0  0  0
 38 39  1  0  0  0
 38 65  1  0  0  0
 38 66  1  0  0  0
 39 67  1  0  0  0
M  END
> <s_m_entry_id>
1153

> <s_m_entry_name>
Compounds-withfrags-for-validation-docking.1880

> <s_m_Source_Path>
/home/rodolpho/data/melina/maestro/glide-dock_XP_5RGK_M-PRO_VALIDATION

> <s_m_Source_File>
glide-dock_XP_5RGK_M-PRO_VALIDATION_pv.maegz

> <i_m_Source_File_Index>
1153

> <CID>
ALP-POS-b0bc6a46-18

> <Potency>
99.5

> <pIC50>
4.00218

> <Source>
Postera

> <smiles>
COc1ccc(N(C(=O)c2ccco2)C(C(=O)NCCc2cccc(F)c2)c2cccnc2)cc1OCCO

> <Outcome>
Inactive

> <StandardizerResult>
Clear Stereo (ID: ClearStereo)
Wedge Clean (ID: WedgeClean)
Mesomerize (ID: Mesomerize)
Tautomerize (ID: Tautomerize)
Aromatize (ID: Aromatize)
Add Explicit Hydrogens (ID: AddExplicitH)
Neutralize (ID: Neutralize)
Clean 2D (ID: Clean2D)

> <chiral flag>
0

> <version>
0

> <i_lp_mmshare_version>
41011

> <i_f3d_flags>
0

> <s_epik_input>
W09IXVtDSDJdW0NIMl1PYzFbY0hdYyhbY0hdW2NIXWMxT1tDSDNdKU4oQyg9TyljMltjSF1bY0hdW2NIXW8yKVtDQEhdKGMzW2NIXVtjSF1bY0hdbltjSF0zKUMoPU8pW05IXVtDSDJdW0NIMl1jNFtjSF1bY0hdW2NIXWMoRilbY0hdNA==

> <s_epik_cmdline>
J2VwaWtfcHl0aG9uJywgJy1waHQnLCAnMC41JywgJy1waCcsICc3LjQnLCAnLXRuJywgJzgnLCAnLW1hJywgJzIwMCcsICctaW1hZScsICc8aW5maWxlLm1hZT4nLCAnLW9tYWUnLCAnPG91dGZpbGUubWFlPic=

> <r_lp_tautomer_probability>
1.0

> <r_epik_Ionization_Penalty>
6.0E-4

> <r_epik_Ionization_Penalty_Charging>
0.0

> <r_epik_Ionization_Penalty_Neutral>
6.0E-4

> <r_epik_State_Penalty>
0.0

> <r_epik_Charging_Adjusted_Penalty>
0.0

> <i_epik_Tot_Q>
0

> <i_epik_Tot_abs_Q>
0

> <s_lp_Force_Field>
OPLS3

> <r_lp_Energy>
80.9342

> <b_lp_Chiralities_Consistent>
1

> <s_lp_Variant>
ligprep_COVID_compounds-withfrags-smallmolecules-forvalidation.maegz:37-1

> <i_glide_original_lignum>
177

> <s_i_glide_gridfile>
glide-grid_5RGK_M-PRO_COVID

> <i_i_glide_lignum>
177

> <r_i_docking_score>
-4.46076229962891

> <r_i_glide_ligand_efficiency>
-0.114378520503306

> <r_i_glide_ligand_efficiency_sa>
-0.387881747092164

> <r_i_glide_ligand_efficiency_ln>
-0.956514063308451

> <r_glide_XP_GScore>
-4.46076229962891

> <r_i_glide_gscore>
-4.46076229962891

> <r_i_glide_evdw>
-35.8468246459961

> <r_i_glide_ecoul>
-9.21186256408691

> <r_i_glide_energy>
-45.058687210083

> <r_i_glide_einternal>
9.10357189178467

> <r_i_glide_emodel>
-60.9551648737036

> <r_glide_XP_HBond>
-1.33

> <i_i_glide_confnum>
4

> <i_i_glide_posenum>
6

> <r_i_glide_eff_state_penalty>
0.0

> <i_glide_XP_PoseRank>
1

> <MW>
533.2

> <cLogP>
3.94

> <TPSA>
114.13

> <Rotatable Bonds>
12

> <Fraction sp3>
0.21

> <HBA>
7

> <HBD>
2

> <s_epik_Chemistry_Notes>


> <Structure ID>


> <Submission Fragments>


$$$$
ligprep_COVID_compounds-withfrags-smallmolecules-forvalidation.maegz:6
                    3D
 Structure written by MMmdl.
 56 59  0  0  1  0            999 V2000
    6.3629   -5.7251   28.6952 C   0  0  0  0  0  0
    5.9429   -5.5240   27.2238 C   0  0  2  0  0  0
    7.1342   -4.9244   26.4669 C   0  0  0  0  0  0
    8.1420   -5.7636   25.9416 C   0  0  0  0  0  0
    9.2445   -5.2403   25.2493 C   0  0  0  0  0  0
    9.3680   -3.8532   25.0931 C   0  0  0  0  0  0
    8.4070   -2.9899   25.6520 C   0  0  0  0  0  0
    8.6041   -1.6458   25.4947 O   0  0  0  0  0  0
    7.2831   -3.5178   26.3519 C   0  0  0  0  0  0
    6.2694   -2.6149   26.9708 C   0  0  0  0  0  0
    6.5949   -1.4847   27.3424 O   0  0  0  0  0  0
    4.8773   -3.1270   27.1391 C   0  0  0  0  0  0
    4.6698   -4.6408   26.9978 C   0  0  2  0  0  0
    3.3693   -5.1041   27.7270 C   0  0  2  0  0  0
    2.1990   -4.2152   27.2554 C   0  0  1  0  0  0
    0.7637   -4.7699   27.3716 C   0  0  1  0  0  0
    0.3984   -5.1058   28.7681 N   0  0  0  0  0  0
   -0.6124   -4.2559   29.3948 C   0  0  0  0  0  0
   -0.0205   -6.5008   28.8840 C   0  0  0  0  0  0
   -0.2446   -3.8845   26.5932 C   0  0  0  0  0  0
   -1.2392   -4.6145   26.3453 O   0  5  0  0  0  0
    0.0958   -2.5656   26.2054 C   0  0  0  0  0  0
   -0.8367   -1.7584   25.3783 C   0  0  0  0  0  0
   -2.0447   -2.2896   25.2002 N   0  0  0  0  0  0
   -0.6049   -0.6674   24.8637 O   0  0  0  0  0  0
    1.4267   -1.9563   26.5706 C   0  0  0  0  0  0
    1.8080   -0.8778   26.1141 O   0  0  0  0  0  0
    2.3566   -2.7061   27.5649 C   0  0  2  0  0  0
    3.8443   -2.2941   27.4498 C   0  0  0  0  0  0
    4.0025   -0.9952   27.7696 O   0  0  0  0  0  0
    1.9368   -2.3706   28.8736 O   0  0  0  0  0  0
    3.4887   -5.0241   29.1361 O   0  0  0  0  0  0
    5.5750   -6.8091   26.7529 O   0  0  0  0  0  0
    6.4970   -4.7715   29.2031 H   0  0  0  0  0  0
    7.3109   -6.2626   28.7602 H   0  0  0  0  0  0
    5.6447   -6.3123   29.2631 H   0  0  0  0  0  0
    8.0950   -6.8302   26.0775 H   0  0  0  0  0  0
    9.9962   -5.9031   24.8451 H   0  0  0  0  0  0
   10.2183   -3.4515   24.5606 H   0  0  0  0  0  0
    7.9480   -1.1351   25.9546 H   0  0  0  0  0  0
    4.4712   -4.7461   25.9292 H   0  0  0  0  0  0
    3.1517   -6.1417   27.4685 H   0  0  0  0  0  0
    2.3274   -4.2741   26.1716 H   0  0  0  0  0  0
    0.8229   -5.7184   26.8327 H   0  0  0  0  0  0
   -0.6860   -4.4844   30.4592 H   0  0  0  0  0  0
   -1.5983   -4.4095   28.9514 H   0  0  0  0  0  0
   -0.3621   -3.1995   29.3019 H   0  0  0  0  0  0
   -0.2152   -6.7603   29.9253 H   0  0  0  0  0  0
    0.7612   -7.1705   28.5208 H   0  0  0  0  0  0
   -0.9289   -6.6851   28.3047 H   0  0  0  0  0  0
   -2.1805   -3.2196   25.6001 H   0  0  0  0  0  0
   -2.7534   -1.8140   24.6650 H   0  0  0  0  0  0
    4.9232   -0.7915   27.6486 H   0  0  0  0  0  0
    2.1919   -1.4708   29.0147 H   0  0  0  0  0  0
    4.0929   -5.6897   29.4262 H   0  0  0  0  0  0
    6.2661   -7.4367   26.9693 H   0  0  0  0  0  0
  1  2  1  0  0  0
  1 34  1  0  0  0
  1 35  1  0  0  0
  1 36  1  0  0  0
  2  3  1  0  0  0
  2 33  1  0  0  0
  2 13  1  0  0  0
  3  4  2  0  0  0
  3  9  1  0  0  0
  4  5  1  0  0  0
  4 37  1  0  0  0
  5  6  2  0  0  0
  5 38  1  0  0  0
  6  7  1  0  0  0
  6 39  1  0  0  0
  7  8  1  0  0  0
  7  9  2  0  0  0
  8 40  1  0  0  0
  9 10  1  0  0  0
 10 11  2  0  0  0
 10 12  1  0  0  0
 12 13  1  0  0  0
 12 29  2  0  0  0
 13 14  1  0  0  0
 13 41  1  0  0  0
 14 15  1  0  0  0
 14 32  1  0  0  0
 14 42  1  0  0  0
 15 16  1  0  0  0
 15 28  1  0  0  0
 15 43  1  0  0  0
 16 17  1  0  0  0
 16 20  1  0  0  0
 16 44  1  0  0  0
 17 18  1  0  0  0
 17 19  1  0  0  0
 18 45  1  0  0  0
 18 46  1  0  0  0
 18 47  1  0  0  0
 19 48  1  0  0  0
 19 49  1  0  0  0
 19 50  1  0  0  0
 20 21  1  0  0  0
 20 22  2  0  0  0
 22 23  1  0  0  0
 22 26  1  0  0  0
 23 24  1  0  0  0
 23 25  2  0  0  0
 24 51  1  0  0  0
 24 52  1  0  0  0
 26 27  2  0  0  0
 26 28  1  0  0  0
 28 29  1  0  0  0
 28 31  1  0  0  0
 29 30  1  0  0  0
 30 53  1  0  0  0
 31 54  1  0  0  0
 32 55  1  0  0  0
 33 56  1  0  0  0
M  CHG  1  21  -1
M  END
> <s_m_entry_id>
1238

> <s_m_entry_name>
Compounds-withfrags-for-validation-docking.1911

> <s_m_Source_Path>
/home/rodolpho/data/melina/maestro/glide-dock_XP_5RGK_M-PRO_VALIDATION

> <s_m_Source_File>
glide-dock_XP_5RGK_M-PRO_VALIDATION_pv.maegz

> <i_m_Source_File_Index>
1238

> <CID>
Oxitetracyclin

> <Potency>
15.15

> <pIC50>
4.81959

> <Source>
https://doi.org/10.1101/2020.03.23.004580

> <smiles>
C(C1(C2=C(C(=C(C(O[H])=C2C(O[H])=C2C1(C(C1(C(N(C([H])([H])[H])C([H])([H])[H])([H])C(=O)C(=C(N([H])[H])O[H])C(=O)C1(C2=O)O[H])[H])(O[H])[H])[H])[H])[H])[H])O[H])([H])([H])[H]

> <Outcome>
Inactive

> <StandardizerResult>
Clear Stereo (ID: ClearStereo)
Wedge Clean (ID: WedgeClean)
Mesomerize (ID: Mesomerize)
Tautomerize (ID: Tautomerize)
Aromatize (ID: Aromatize)
Add Explicit Hydrogens (ID: AddExplicitH)
Neutralize (ID: Neutralize)
Clean 2D (ID: Clean2D)

> <chiral flag>
0

> <version>
0

> <i_lp_mmshare_version>
41011

> <i_f3d_flags>
0

> <s_epik_input>
W09IXWMxW2NIXVtjSF1bY0hdYyhbQ0BdMihbQ0gzXSlbT0hdKWMxQyg9TylDKD1DM1tPSF0pW0NAQEhdMltDQEBIXShbT0hdKVtDQEhdKFtDQEBdMzRbT0hdKVtDQEBIXShOKFtDSDNdKVtDSDNdKUMoPU8pW0NASF0oQzQ9TylDKD1PKVtOSDJd

> <s_epik_cmdline>
J2VwaWtfcHl0aG9uJywgJy1waHQnLCAnMC41JywgJy1waCcsICc3LjQnLCAnLXRuJywgJzgnLCAnLW1hJywgJzIwMCcsICctaW1hZScsICc8aW5maWxlLm1hZT4nLCAnLW9tYWUnLCAnPG91dGZpbGUubWFlPic=

> <r_epik_Ionization_Penalty>
0.3646

> <r_epik_Ionization_Penalty_Charging>
0.0013

> <r_epik_Ionization_Penalty_Neutral>
0.3633

> <r_epik_State_Penalty>
0.3215

> <r_epik_Charging_Adjusted_Penalty>
0.322822

> <i_epik_Tot_Q>
-1

> <i_epik_Tot_abs_Q>
1

> <s_lp_Force_Field>
OPLS3

> <r_lp_Energy>
59.1151

> <b_lp_Chiralities_Consistent>
1

> <s_lp_Variant>
ligprep_COVID_compounds-withfrags-smallmolecules-forvalidation.maegz:6-1

> <i_glide_original_lignum>
53

> <s_i_glide_gridfile>
glide-grid_5RGK_M-PRO_COVID

> <i_i_glide_lignum>
53

> <r_i_docking_score>
-4.39952150035475

> <r_i_glide_ligand_efficiency>
-0.133318833344083

> <r_i_glide_ligand_efficiency_sa>
-0.427624734287742

> <r_i_glide_ligand_efficiency_ln>
-0.978430802175701

> <r_glide_XP_GScore>
-4.72101850035475

> <r_i_glide_gscore>
-4.72101850035475

> <r_i_glide_evdw>
-19.7706317901611

> <r_i_glide_ecoul>
-10.8099088668823

> <r_i_glide_energy>
-30.5805406570435

> <r_i_glide_einternal>
0.0

> <r_i_glide_emodel>
-33.0473168216739

> <r_glide_XP_HBond>
-2.14

> <i_i_glide_confnum>
1

> <i_i_glide_posenum>
47

> <r_i_glide_eff_state_penalty>
0.321497

> <i_glide_XP_PoseRank>
1

> <r_lp_tautomer_probability>


> <s_epik_Chemistry_Notes>


> <MW>


> <cLogP>


> <TPSA>


> <Rotatable Bonds>


> <Fraction sp3>


> <HBA>


> <HBD>


> <Structure ID>


> <Submission Fragments>


$$$$
ligprep_COVID_compounds-withfrags-smallmolecules-forvalidation.maegz:29
                    3D
 Structure written by MMmdl.
 71 75  0  0  1  0            999 V2000
    3.5646    1.7061   24.1839 O   0  0  0  0  0  0
    3.9948    2.5270   23.3705 C   0  0  0  0  0  0
    5.2730    2.5274   22.9707 N   0  0  0  0  0  0
    6.2149    1.4218   23.1121 C   0  0  0  0  0  0
    5.7615    0.1274   22.3861 C   0  0  0  0  0  0
    5.6868    0.1762   20.8585 C   0  0  0  0  0  0
    5.2031    1.3033   20.1520 C   0  0  0  0  0  0
    5.1548    1.3163   18.7505 C   0  0  0  0  0  0
    5.5731    0.1873   18.0379 C   0  0  0  0  0  0
    6.0079   -0.9593   18.7141 C   0  0  0  0  0  0
    6.3586   -2.0503   17.9979 F   0  0  0  0  0  0
    6.0790   -0.9633   20.1202 C   0  0  0  0  0  0
    3.0707    3.5494   22.6509 C   0  0  1  0  0  0
    1.8422    2.7620   22.2859 C   0  0  0  0  0  0
    0.7558    2.5578   23.1693 C   0  0  0  0  0  0
   -0.3601    1.8088   22.7540 C   0  0  0  0  0  0
   -0.3597    1.2750   21.4551 C   0  0  0  0  0  0
    0.6599    1.4462   20.5927 N   0  0  0  0  0  0
    1.7190    2.1770   21.0041 C   0  0  0  0  0  0
    2.7045    4.8300   23.3166 N   0  0  0  0  0  0
    2.8889    5.0701   24.6455 C   0  0  0  0  0  0
    2.7855    4.1994   25.5092 O   0  0  0  0  0  0
    3.2944    6.4191   25.0843 C   0  0  0  0  0  0
    4.4059    7.1624   24.7905 C   0  0  0  0  0  0
    4.2990    8.3663   25.5399 C   0  0  0  0  0  0
    3.1450    8.2570   26.2614 C   0  0  0  0  0  0
    2.5309    7.0688   26.0091 O   0  0  0  0  0  0
    2.0930    5.8109   22.3765 C   0  0  1  0  0  0
    0.8505    6.5484   22.9145 C   0  0  0  0  0  0
    0.1295    7.2656   21.7613 C   0  0  0  0  0  0
    1.0634    8.2383   21.0113 C   0  0  0  0  0  0
    2.4417    7.6541   20.6092 C   0  0  2  0  0  0
    2.4947    6.9849   19.2320 C   0  0  0  0  0  0
    3.4515    7.4293   18.2895 C   0  0  0  0  0  0
    3.5749    6.7987   17.0350 C   0  0  0  0  0  0
    2.7420    5.7137   16.7072 C   0  0  0  0  0  0
    2.8728    5.0980   15.5070 F   0  0  0  0  0  0
    1.7738    5.2736   17.6294 C   0  0  0  0  0  0
    0.9625    4.2365   17.3156 F   0  0  0  0  0  0
    1.6468    5.9085   18.8807 C   0  0  0  0  0  0
    3.0800    6.8091   21.7364 C   0  0  0  0  0  0
    5.5533    3.2811   22.3284 H   0  0  0  0  0  0
    7.1790    1.7427   22.7161 H   0  0  0  0  0  0
    6.3732    1.2193   24.1705 H   0  0  0  0  0  0
    6.4576   -0.6654   22.6620 H   0  0  0  0  0  0
    4.7922   -0.2027   22.7598 H   0  0  0  0  0  0
    4.8620    2.1958   20.6407 H   0  0  0  0  0  0
    4.7887    2.1908   18.2300 H   0  0  0  0  0  0
    5.5209    0.1817   16.9707 H   0  0  0  0  0  0
    6.4292   -1.8518   20.6260 H   0  0  0  0  0  0
    3.5749    3.8367   21.7279 H   0  0  0  0  0  0
    0.7774    2.9694   24.1673 H   0  0  0  0  0  0
   -1.1947    1.6446   23.4193 H   0  0  0  0  0  0
   -1.1955    0.6903   21.1000 H   0  0  0  0  0  0
    2.5040    2.2990   20.2729 H   0  0  0  0  0  0
    5.1960    6.8721   24.1125 H   0  0  0  0  0  0
    4.9855    9.1999   25.5579 H   0  0  0  0  0  0
    2.6417    8.8939   26.9737 H   0  0  0  0  0  0
    1.7147    5.2170   21.5492 H   0  0  0  0  0  0
    0.1663    5.8405   23.3842 H   0  0  0  0  0  0
    1.1238    7.2780   23.6765 H   0  0  0  0  0  0
   -0.2875    6.5328   21.0727 H   0  0  0  0  0  0
   -0.7260    7.8159   22.1537 H   0  0  0  0  0  0
    0.5611    8.6688   20.1443 H   0  0  0  0  0  0
    1.2481    9.0749   21.6864 H   0  0  0  0  0  0
    3.0898    8.5257   20.5071 H   0  0  0  0  0  0
    4.1163    8.2448   18.5326 H   0  0  0  0  0  0
    4.3192    7.1362   16.3284 H   0  0  0  0  0  0
    0.9034    5.5370   19.5642 H   0  0  0  0  0  0
    3.4176    7.5130   22.4900 H   0  0  0  0  0  0
    3.9704    6.2981   21.3706 H   0  0  0  0  0  0
  1  2  2  0  0  0
  2  3  1  0  0  0
  2 13  1  0  0  0
  3  4  1  0  0  0
  3 42  1  0  0  0
  4  5  1  0  0  0
  4 43  1  0  0  0
  4 44  1  0  0  0
  5  6  1  0  0  0
  5 45  1  0  0  0
  5 46  1  0  0  0
  6  7  2  0  0  0
  6 12  1  0  0  0
  7  8  1  0  0  0
  7 47  1  0  0  0
  8  9  2  0  0  0
  8 48  1  0  0  0
  9 10  1  0  0  0
  9 49  1  0  0  0
 10 11  1  0  0  0
 10 12  2  0  0  0
 12 50  1  0  0  0
 13 14  1  0  0  0
 13 20  1  0  0  0
 13 51  1  0  0  0
 14 15  2  0  0  0
 14 19  1  0  0  0
 15 16  1  0  0  0
 15 52  1  0  0  0
 16 17  2  0  0  0
 16 53  1  0  0  0
 17 18  1  0  0  0
 17 54  1  0  0  0
 18 19  2  0  0  0
 19 55  1  0  0  0
 20 21  1  0  0  0
 20 28  1  0  0  0
 21 22  2  0  0  0
 21 23  1  0  0  0
 23 24  2  0  0  0
 23 27  1  0  0  0
 24 25  1  0  0  0
 24 56  1  0  0  0
 25 26  2  0  0  0
 25 57  1  0  0  0
 26 27  1  0  0  0
 26 58  1  0  0  0
 28 29  1  0  0  0
 28 41  1  0  0  0
 28 59  1  0  0  0
 29 30  1  0  0  0
 29 60  1  0  0  0
 29 61  1  0  0  0
 30 31  1  0  0  0
 30 62  1  0  0  0
 30 63  1  0  0  0
 31 32  1  0  0  0
 31 64  1  0  0  0
 31 65  1  0  0  0
 32 33  1  0  0  0
 32 41  1  0  0  0
 32 66  1  0  0  0
 33 34  2  0  0  0
 33 40  1  0  0  0
 34 35  1  0  0  0
 34 67  1  0  0  0
 35 36  2  0  0  0
 35 68  1  0  0  0
 36 37  1  0  0  0
 36 38  1  0  0  0
 38 39  1  0  0  0
 38 40  2  0  0  0
 40 69  1  0  0  0
 41 70  1  0  0  0
 41 71  1  0  0  0
M  END
> <s_m_entry_id>
1241

> <s_m_entry_name>
Compounds-withfrags-for-validation-docking.1888

> <s_m_Source_Path>
/home/rodolpho/data/melina/maestro/glide-dock_XP_5RGK_M-PRO_VALIDATION

> <s_m_Source_File>
glide-dock_XP_5RGK_M-PRO_VALIDATION_pv.maegz

> <i_m_Source_File_Index>
1241

> <CID>
ALP-POS-b0bc6a46-26

> <Potency>
99.5

> <pIC50>
4.00218

> <Source>
Postera

> <smiles>
O=C(NCCc1cccc(F)c1)C(c1cccnc1)N(C(=O)c1ccco1)C1CCCC(c2ccc(F)c(F)c2)C1

> <Outcome>
Inactive

> <StandardizerResult>
Clear Stereo (ID: ClearStereo)
Wedge Clean (ID: WedgeClean)
Mesomerize (ID: Mesomerize)
Tautomerize (ID: Tautomerize)
Aromatize (ID: Aromatize)
Add Explicit Hydrogens (ID: AddExplicitH)
Neutralize (ID: Neutralize)
Clean 2D (ID: Clean2D)

> <chiral flag>
0

> <version>
0

> <i_lp_mmshare_version>
41011

> <i_f3d_flags>
0

> <s_epik_input>
RmMoW2NIXTEpW2NIXVtjSF1bY0hdYzFbQ0gyXVtDSDJdW05IXUMoPU8pW0NAQEhdKGMyW2NIXVtjSF1bY0hdbltjSF0yKU4oQyg9TyljM1tjSF1bY0hdW2NIXW8zKVtDQEhdNFtDSDJdW0NIMl1bQ0gyXVtDQEBIXShbQ0gyXTQpYzVbY0hdW2NIXWMoRiljKEYpW2NIXTU=

> <s_epik_cmdline>
J2VwaWtfcHl0aG9uJywgJy1waHQnLCAnMC41JywgJy1waCcsICc3LjQnLCAnLXRuJywgJzgnLCAnLW1hJywgJzIwMCcsICctaW1hZScsICc8aW5maWxlLm1hZT4nLCAnLW9tYWUnLCAnPG91dGZpbGUubWFlPic=

> <r_lp_tautomer_probability>
1.0

> <r_epik_Ionization_Penalty>
8.0E-4

> <r_epik_Ionization_Penalty_Charging>
0.0

> <r_epik_Ionization_Penalty_Neutral>
8.0E-4

> <r_epik_State_Penalty>
0.0

> <r_epik_Charging_Adjusted_Penalty>
0.0

> <i_epik_Tot_Q>
0

> <i_epik_Tot_abs_Q>
0

> <s_lp_Force_Field>
OPLS3

> <r_lp_Energy>
69.7669

> <b_lp_Chiralities_Consistent>
1

> <s_lp_Variant>
ligprep_COVID_compounds-withfrags-smallmolecules-forvalidation.maegz:29-7

> <i_glide_original_lignum>
159

> <s_i_glide_gridfile>
glide-grid_5RGK_M-PRO_COVID

> <i_i_glide_lignum>
159

> <r_i_docking_score>
-4.3978821220887

> <r_i_glide_ligand_efficiency>
-0.107265417611919

> <r_i_glide_ligand_efficiency_sa>
-0.369874461848422

> <r_i_glide_ligand_efficiency_ln>
-0.933025327681827

> <r_glide_XP_GScore>
-4.3978821220887

> <r_i_glide_gscore>
-4.3978821220887

> <r_i_glide_evdw>
-28.4803600311279

> <r_i_glide_ecoul>
-17.2755794525146

> <r_i_glide_energy>
-45.7559394836426

> <r_i_glide_einternal>
12.3688650131226

> <r_i_glide_emodel>
-59.3774909973145

> <r_glide_XP_HBond>
-1.575

> <i_i_glide_confnum>
6

> <i_i_glide_posenum>
55

> <r_i_glide_eff_state_penalty>
0.0

> <i_glide_XP_PoseRank>
1

> <MW>
561.22

> <cLogP>
6.36

> <TPSA>
75.44

> <Rotatable Bonds>
9

> <Fraction sp3>
0.28

> <HBA>
4

> <HBD>
1

> <s_epik_Chemistry_Notes>


> <Structure ID>


> <Submission Fragments>


$$$$
ligprep_COVID_compounds-withfrags-smallmolecules-forvalidation.maegz:6
                    3D
 Structure written by MMmdl.
 57 60  0  0  1  0            999 V2000
    6.9723   -6.7914   29.0303 C   0  0  0  0  0  0
    6.1235   -6.0097   28.0009 C   0  0  2  0  0  0
    6.9860   -5.0038   27.2080 C   0  0  0  0  0  0
    8.2259   -5.4405   26.6797 C   0  0  0  0  0  0
    9.0840   -4.5640   26.0008 C   0  0  0  0  0  0
    8.7061   -3.2266   25.8266 C   0  0  0  0  0  0
    7.4626   -2.7694   26.2982 C   0  0  0  0  0  0
    7.1755   -1.4525   26.0657 O   0  0  0  0  0  0
    6.5696   -3.6567   26.9707 C   0  0  0  0  0  0
    5.1917   -3.2092   27.3676 C   0  0  0  0  0  0
    4.8176   -2.0380   27.2730 O   0  0  0  0  0  0
    4.2810   -4.2647   27.8593 C   0  0  0  0  0  0
    4.9582   -5.2969   28.7441 C   0  0  1  0  0  0
    3.9293   -6.1864   29.5047 C   0  0  2  0  0  0
    2.7355   -6.5851   28.6102 C   0  0  1  0  0  0
    1.8265   -7.7111   29.1570 C   0  0  1  0  0  0
    1.2823   -7.3772   30.5174 N   0  3  0  0  0  0
   -0.1828   -7.1448   30.6323 C   0  0  0  0  0  0
    1.7573   -8.3027   31.5704 C   0  0  0  0  0  0
    0.7504   -8.1341   28.1343 C   0  0  0  0  0  0
    0.3603   -9.2764   28.4890 O   0  5  0  0  0  0
    0.4278   -7.2972   27.0429 C   0  0  0  0  0  0
   -0.5865   -7.7106   26.0424 C   0  0  0  0  0  0
   -1.0495   -8.9509   26.1825 N   0  0  0  0  0  0
   -1.0276   -7.0245   25.1216 O   0  0  0  0  0  0
    1.1250   -5.9797   26.8363 C   0  0  0  0  0  0
    1.0665   -5.3638   25.7710 O   0  0  0  0  0  0
    1.9664   -5.3859   28.0027 C   0  0  2  0  0  0
    2.9526   -4.2697   27.5857 C   0  0  0  0  0  0
    2.3281   -3.2484   26.9694 O   0  0  0  0  0  0
    1.0910   -4.8211   28.9610 O   0  0  0  0  0  0
    3.4504   -5.4815   30.6422 O   0  0  0  0  0  0
    5.5749   -6.9636   27.1244 O   0  0  0  0  0  0
    7.3046   -6.1344   29.8294 H   0  0  0  0  0  0
    7.8584   -7.2531   28.5990 H   0  0  0  0  0  0
    6.4245   -7.6107   29.4928 H   0  0  0  0  0  0
    8.5425   -6.4680   26.7818 H   0  0  0  0  0  0
   10.0301   -4.9199   25.6177 H   0  0  0  0  0  0
    9.3670   -2.5482   25.3081 H   0  0  0  0  0  0
    6.3275   -1.1752   26.3932 H   0  0  0  0  0  0
    5.4557   -4.7029   29.5145 H   0  0  0  0  0  0
    4.4020   -7.0894   29.8838 H   0  0  0  0  0  0
    3.2099   -7.0726   27.7581 H   0  0  0  0  0  0
    2.5041   -8.5606   29.2765 H   0  0  0  0  0  0
   -0.7393   -8.0819   30.5964 H   0  0  0  0  0  0
   -0.5706   -6.4975   29.8470 H   0  0  0  0  0  0
   -0.4110   -6.6666   31.5851 H   0  0  0  0  0  0
    1.3695   -9.3092   31.4057 H   0  0  0  0  0  0
    1.4329   -7.9681   32.5563 H   0  0  0  0  0  0
    2.8460   -8.3523   31.5844 H   0  0  0  0  0  0
   -0.6776   -9.4810   26.9710 H   0  0  0  0  0  0
   -1.7321   -9.3294   25.5463 H   0  0  0  0  0  0
    2.9740   -2.5740   26.8068 H   0  0  0  0  0  0
    1.6256   -4.3673   29.5968 H   0  0  0  0  0  0
    4.1926   -5.2063   31.1644 H   0  0  0  0  0  0
    6.2555   -7.6239   26.9708 H   0  0  0  0  0  0
    1.7215   -6.4859   30.7206 H   0  0  0  0  0  0
  1  2  1  0  0  0
  1 34  1  0  0  0
  1 35  1  0  0  0
  1 36  1  0  0  0
  2  3  1  0  0  0
  2 33  1  0  0  0
  2 13  1  0  0  0
  3  4  2  0  0  0
  3  9  1  0  0  0
  4  5  1  0  0  0
  4 37  1  0  0  0
  5  6  2  0  0  0
  5 38  1  0  0  0
  6  7  1  0  0  0
  6 39  1  0  0  0
  7  8  1  0  0  0
  7  9  2  0  0  0
  8 40  1  0  0  0
  9 10  1  0  0  0
 10 11  2  0  0  0
 10 12  1  0  0  0
 12 13  1  0  0  0
 12 29  2  0  0  0
 13 14  1  0  0  0
 13 41  1  0  0  0
 14 15  1  0  0  0
 14 32  1  0  0  0
 14 42  1  0  0  0
 15 16  1  0  0  0
 15 28  1  0  0  0
 15 43  1  0  0  0
 16 17  1  0  0  0
 16 20  1  0  0  0
 16 44  1  0  0  0
 17 18  1  0  0  0
 17 19  1  0  0  0
 17 57  1  0  0  0
 18 45  1  0  0  0
 18 46  1  0  0  0
 18 47  1  0  0  0
 19 48  1  0  0  0
 19 49  1  0  0  0
 19 50  1  0  0  0
 20 21  1  0  0  0
 20 22  2  0  0  0
 22 23  1  0  0  0
 22 26  1  0  0  0
 23 24  1  0  0  0
 23 25  2  0  0  0
 24 51  1  0  0  0
 24 52  1  0  0  0
 26 27  2  0  0  0
 26 28  1  0  0  0
 28 29  1  0  0  0
 28 31  1  0  0  0
 29 30  1  0  0  0
 30 53  1  0  0  0
 31 54  1  0  0  0
 32 55  1  0  0  0
 33 56  1  0  0  0
M  CHG  2  17   1  21  -1
M  END
> <s_m_entry_id>
1260

> <s_m_entry_name>
Compounds-withfrags-for-validation-docking.1911

> <s_m_Source_Path>
/home/rodolpho/data/melina/maestro/glide-dock_XP_5RGK_M-PRO_VALIDATION

> <s_m_Source_File>
glide-dock_XP_5RGK_M-PRO_VALIDATION_pv.maegz

> <i_m_Source_File_Index>
1260

> <CID>
Oxitetracyclin

> <Potency>
15.15

> <pIC50>
4.81959

> <Source>
https://doi.org/10.1101/2020.03.23.004580

> <smiles>
C(C1(C2=C(C(=C(C(O[H])=C2C(O[H])=C2C1(C(C1(C(N(C([H])([H])[H])C([H])([H])[H])([H])C(=O)C(=C(N([H])[H])O[H])C(=O)C1(C2=O)O[H])[H])(O[H])[H])[H])[H])[H])[H])O[H])([H])([H])[H]

> <Outcome>
Inactive

> <StandardizerResult>
Clear Stereo (ID: ClearStereo)
Wedge Clean (ID: WedgeClean)
Mesomerize (ID: Mesomerize)
Tautomerize (ID: Tautomerize)
Aromatize (ID: Aromatize)
Add Explicit Hydrogens (ID: AddExplicitH)
Neutralize (ID: Neutralize)
Clean 2D (ID: Clean2D)

> <chiral flag>
0

> <version>
0

> <i_lp_mmshare_version>
41011

> <i_f3d_flags>
0

> <s_epik_input>
W09IXWMxW2NIXVtjSF1bY0hdYyhbQ0BdMihbQ0gzXSlbT0hdKWMxQyg9TylDKD1DM1tPSF0pW0NASF0yW0NAQEhdKFtPSF0pW0NASF0oW0NAQF0zNFtPSF0pW0NAQEhdKE4oW0NIM10pW0NIM10pQyg9TylbQ0BIXShDND1PKUMoPU8pW05IMl0=

> <s_epik_cmdline>
J2VwaWtfcHl0aG9uJywgJy1waHQnLCAnMC41JywgJy1waCcsICc3LjQnLCAnLXRuJywgJzgnLCAnLW1hJywgJzIwMCcsICctaW1hZScsICc8aW5maWxlLm1hZT4nLCAnLW9tYWUnLCAnPG91dGZpbGUubWFlPic=

> <r_epik_Ionization_Penalty>
0.6144

> <r_epik_Ionization_Penalty_Charging>
0.5087

> <r_epik_Ionization_Penalty_Neutral>
0.1057

> <r_epik_State_Penalty>
0.5157

> <r_epik_Charging_Adjusted_Penalty>
1.02439

> <i_epik_Tot_Q>
0

> <i_epik_Tot_abs_Q>
2

> <s_lp_Force_Field>
OPLS3

> <r_lp_Energy>
57.3372

> <b_lp_Chiralities_Consistent>
1

> <s_lp_Variant>
ligprep_COVID_compounds-withfrags-smallmolecules-forvalidation.maegz:6-26

> <i_glide_original_lignum>
78

> <s_i_glide_gridfile>
glide-grid_5RGK_M-PRO_COVID

> <i_i_glide_lignum>
78

> <r_i_docking_score>
-4.38810123307078

> <r_i_glide_ligand_efficiency>
-0.132972764638508

> <r_i_glide_ligand_efficiency_sa>
-0.426514707035367

> <r_i_glide_ligand_efficiency_ln>
-0.975890993862724

> <r_glide_XP_GScore>
-4.90380823307078

> <r_i_glide_gscore>
-4.90380823307078

> <r_i_glide_evdw>
-20.0798664093018

> <r_i_glide_ecoul>
-15.7328109741211

> <r_i_glide_energy>
-35.8126773834229

> <r_i_glide_einternal>
0.0

> <r_i_glide_emodel>
-40.042661019729

> <r_glide_XP_HBond>
-2.19970853047432

> <i_i_glide_confnum>
1

> <i_i_glide_posenum>
6

> <r_i_glide_eff_state_penalty>
0.515707

> <i_glide_XP_PoseRank>
1

> <r_lp_tautomer_probability>


> <s_epik_Chemistry_Notes>


> <MW>


> <cLogP>


> <TPSA>


> <Rotatable Bonds>


> <Fraction sp3>


> <HBA>


> <HBD>


> <Structure ID>


> <Submission Fragments>


$$$$
ligprep_COVID_compounds-withfrags-smallmolecules-forvalidation.maegz:17
                    3D
 Structure written by MMmdl.
 71 75  0  0  1  0            999 V2000
    0.2130   -0.2457   28.1842 C   0  0  0  0  0  0
    0.7520   -1.2212   27.1180 C   0  0  0  0  0  0
    1.7326   -2.1907   27.8181 C   0  0  0  0  0  0
   -0.4129   -2.0641   26.5564 C   0  0  0  0  0  0
    1.4097   -0.4275   25.9756 C   0  0  0  0  0  0
    2.7756   -0.5695   25.6424 C   0  0  0  0  0  0
    3.3333    0.1472   24.5698 C   0  0  0  0  0  0
    2.5686    1.0359   23.7868 C   0  0  0  0  0  0
    3.1424    1.7486   22.6676 N   0  0  0  0  0  0
    2.3175    2.1986   21.6915 C   0  0  0  0  0  0
    1.5897    1.4368   21.0474 O   0  0  0  0  0  0
    2.2886    3.6523   21.4233 C   0  0  0  0  0  0
    2.7651    4.7203   22.1418 C   0  0  0  0  0  0
    2.3718    5.8918   21.4391 C   0  0  0  0  0  0
    1.6714    5.4601   20.3496 C   0  0  0  0  0  0
    1.5936    4.1011   20.3360 O   0  0  0  0  0  0
    4.6164    1.8847   22.4619 C   0  0  1  0  0  0
    5.3849    2.5598   23.6235 C   0  0  0  0  0  0
    4.7554    3.0361   24.5705 O   0  0  0  0  0  0
    6.7264    2.6408   23.5416 N   0  0  0  0  0  0
    7.5568    3.3507   24.5242 C   0  0  0  0  0  0
    8.7859    4.0542   23.9013 C   0  0  0  0  0  0
   10.0593    3.2349   23.6811 C   0  0  0  0  0  0
   10.2223    1.9173   24.1711 C   0  0  0  0  0  0
   11.4301    1.2227   23.9559 C   0  0  0  0  0  0
   12.4847    1.8315   23.2511 C   0  0  0  0  0  0
   12.3349    3.1417   22.7609 C   0  0  0  0  0  0
   13.3506    3.7407   22.0946 F   0  0  0  0  0  0
   11.1281    3.8350   22.9723 C   0  0  0  0  0  0
    5.2779    0.6801   21.8240 C   0  0  0  0  0  0
    5.9158   -0.4146   22.3507 C   0  0  0  0  0  0
    6.2990   -1.3019   21.3593 N   0  0  0  0  0  0
    5.9564   -0.7355   20.2083 C   0  0  0  0  0  0
    6.0554   -1.1669   18.8629 C   0  0  0  0  0  0
    5.7665   -0.3208   17.8265 C   0  0  0  0  0  0
    5.1906    0.9356   18.1055 C   0  0  0  0  0  0
    4.9387    1.3078   19.4021 C   0  0  0  0  0  0
    5.3481    0.5182   20.4390 N   0  0  0  0  0  0
    1.2065    1.2035   24.1534 C   0  0  0  0  0  0
    0.6382    0.4812   25.2178 C   0  0  0  0  0  0
   -0.2425   -0.7783   29.0191 H   0  0  0  0  0  0
   -0.5472    0.4241   27.7778 H   0  0  0  0  0  0
    1.0129    0.3735   28.5888 H   0  0  0  0  0  0
    2.5703   -1.6597   28.2724 H   0  0  0  0  0  0
    2.1337   -2.9290   27.1218 H   0  0  0  0  0  0
    1.2410   -2.7416   28.6193 H   0  0  0  0  0  0
   -0.8856   -2.6608   27.3373 H   0  0  0  0  0  0
   -0.0650   -2.7534   25.7859 H   0  0  0  0  0  0
   -1.1937   -1.4432   26.1125 H   0  0  0  0  0  0
    3.4264   -1.2352   26.1860 H   0  0  0  0  0  0
    4.3743   -0.0162   24.3708 H   0  0  0  0  0  0
    3.3358    4.6717   23.0574 H   0  0  0  0  0  0
    2.5824    6.9191   21.6953 H   0  0  0  0  0  0
    1.1802    5.9586   19.5257 H   0  0  0  0  0  0
    4.7452    2.6363   21.7026 H   0  0  0  0  0  0
    7.1757    2.2816   22.7106 H   0  0  0  0  0  0
    6.9549    4.1455   24.9681 H   0  0  0  0  0  0
    7.8170    2.6995   25.3596 H   0  0  0  0  0  0
    8.4979    4.5245   22.9569 H   0  0  0  0  0  0
    9.0686    4.8748   24.5632 H   0  0  0  0  0  0
    9.4332    1.4185   24.7133 H   0  0  0  0  0  0
   11.5447    0.2200   24.3385 H   0  0  0  0  0  0
   13.4121    1.2994   23.0927 H   0  0  0  0  0  0
   11.0232    4.8377   22.5839 H   0  0  0  0  0  0
    6.1161   -0.6653   23.3810 H   0  0  0  0  0  0
    6.3752   -2.1746   18.6606 H   0  0  0  0  0  0
    5.9682   -0.6626   16.8197 H   0  0  0  0  0  0
    4.9023    1.6040   17.3009 H   0  0  0  0  0  0
    4.4430    2.2359   19.6368 H   0  0  0  0  0  0
    0.5636    1.8875   23.6192 H   0  0  0  0  0  0
   -0.4052    0.6325   25.4429 H   0  0  0  0  0  0
  1  2  1  0  0  0
  1 41  1  0  0  0
  1 42  1  0  0  0
  1 43  1  0  0  0
  2  3  1  0  0  0
  2  4  1  0  0  0
  2  5  1  0  0  0
  3 44  1  0  0  0
  3 45  1  0  0  0
  3 46  1  0  0  0
  4 47  1  0  0  0
  4 48  1  0  0  0
  4 49  1  0  0  0
  5  6  2  0  0  0
  5 40  1  0  0  0
  6  7  1  0  0  0
  6 50  1  0  0  0
  7  8  2  0  0  0
  7 51  1  0  0  0
  8  9  1  0  0  0
  8 39  1  0  0  0
  9 10  1  0  0  0
  9 17  1  0  0  0
 10 11  2  0  0  0
 10 12  1  0  0  0
 12 13  2  0  0  0
 12 16  1  0  0  0
 13 14  1  0  0  0
 13 52  1  0  0  0
 14 15  2  0  0  0
 14 53  1  0  0  0
 15 16  1  0  0  0
 15 54  1  0  0  0
 17 18  1  0  0  0
 17 30  1  0  0  0
 17 55  1  0  0  0
 18 19  2  0  0  0
 18 20  1  0  0  0
 20 21  1  0  0  0
 20 56  1  0  0  0
 21 22  1  0  0  0
 21 57  1  0  0  0
 21 58  1  0  0  0
 22 23  1  0  0  0
 22 59  1  0  0  0
 22 60  1  0  0  0
 23 24  2  0  0  0
 23 29  1  0  0  0
 24 25  1  0  0  0
 24 61  1  0  0  0
 25 26  2  0  0  0
 25 62  1  0  0  0
 26 27  1  0  0  0
 26 63  1  0  0  0
 27 28  1  0  0  0
 27 29  2  0  0  0
 29 64  1  0  0  0
 30 31  2  0  0  0
 30 38  1  0  0  0
 31 32  1  0  0  0
 31 65  1  0  0  0
 32 33  2  0  0  0
 33 34  1  0  0  0
 33 38  1  0  0  0
 34 35  2  0  0  0
 34 66  1  0  0  0
 35 36  1  0  0  0
 35 67  1  0  0  0
 36 37  2  0  0  0
 36 68  1  0  0  0
 37 38  1  0  0  0
 37 69  1  0  0  0
 39 40  2  0  0  0
 39 70  1  0  0  0
 40 71  1  0  0  0
M  END
> <s_m_entry_id>
1290

> <s_m_entry_name>
Compounds-withfrags-for-validation-docking.1900

> <s_m_Source_Path>
/home/rodolpho/data/melina/maestro/glide-dock_XP_5RGK_M-PRO_VALIDATION

> <s_m_Source_File>
glide-dock_XP_5RGK_M-PRO_VALIDATION_pv.maegz

> <i_m_Source_File_Index>
1290

> <CID>
ALP-POS-02c6a514-34

> <Potency>
37.4742

> <pIC50>
4.42627

> <Source>
Postera

> <smiles>
CC(C)(C)c1ccc(N(C(=O)c2ccco2)C(C(=O)NCCc2cccc(F)c2)c2cnc3ccccn23)cc1

> <Outcome>
Inactive

> <StandardizerResult>
Clear Stereo (ID: ClearStereo)
Wedge Clean (ID: WedgeClean)
Mesomerize (ID: Mesomerize)
Tautomerize (ID: Tautomerize)
Aromatize (ID: Aromatize)
Add Explicit Hydrogens (ID: AddExplicitH)
Neutralize (ID: Neutralize)
Clean 2D (ID: Clean2D)

> <chiral flag>
0

> <version>
0

> <i_lp_mmshare_version>
41011

> <i_f3d_flags>
0

> <s_epik_input>
W0NIM11DKFtDSDNdKShbQ0gzXSljMVtjSF1bY0hdYyhbY0hdW2NIXTEpTihDKD1PKWMyW2NIXVtjSF1bY0hdbzIpW0NASF0oYyhbY0hdbjMpbihjMzQpW2NIXVtjSF1bY0hdW2NIXTQpQyg9TylbTkhdW0NIMl1bQ0gyXWM1W2NIXVtjSF1bY0hdYyhGKVtjSF01

> <s_epik_cmdline>
J2VwaWtfcHl0aG9uJywgJy1waHQnLCAnMC41JywgJy1waCcsICc3LjQnLCAnLXRuJywgJzgnLCAnLW1hJywgJzIwMCcsICctaW1hZScsICc8aW5maWxlLm1hZT4nLCAnLW9tYWUnLCAnPG91dGZpbGUubWFlPic=

> <r_epik_Ionization_Penalty>
0.0239

> <r_epik_Ionization_Penalty_Charging>
0.0239

> <r_epik_Ionization_Penalty_Neutral>
0.0

> <r_epik_State_Penalty>
0.0194

> <r_epik_Charging_Adjusted_Penalty>
0.0433115

> <i_epik_Tot_Q>
0

> <i_epik_Tot_abs_Q>
0

> <s_lp_Force_Field>
OPLS3

> <r_lp_Energy>
69.3564

> <b_lp_Chiralities_Consistent>
1

> <s_lp_Variant>
ligprep_COVID_compounds-withfrags-smallmolecules-forvalidation.maegz:17-1

> <i_glide_original_lignum>
127

> <s_i_glide_gridfile>
glide-grid_5RGK_M-PRO_COVID

> <i_i_glide_lignum>
127

> <r_i_docking_score>
-4.36211751977005

> <r_i_glide_ligand_efficiency>
-0.109052937994251

> <r_i_glide_ligand_efficiency_sa>
-0.372955801310593

> <r_i_glide_ligand_efficiency_ln>
-0.930311295578905

> <r_glide_XP_GScore>
-4.38150681977005

> <r_i_glide_gscore>
-4.38150681977005

> <r_i_glide_evdw>
-36.2440643310547

> <r_i_glide_ecoul>
-8.8549633026123

> <r_i_glide_energy>
-45.099027633667

> <r_i_glide_einternal>
3.28827381134033

> <r_i_glide_emodel>
-58.535255700245

> <r_glide_XP_HBond>
0.0

> <i_i_glide_confnum>
1

> <i_i_glide_posenum>
29

> <r_i_glide_eff_state_penalty>
0.0193893

> <i_glide_XP_PoseRank>
1

> <MW>
538.24

> <cLogP>
6.11

> <TPSA>
79.85

> <Rotatable Bonds>
8

> <Fraction sp3>
0.22

> <HBA>
5

> <HBD>
1

> <r_lp_tautomer_probability>


> <s_epik_Chemistry_Notes>


> <Structure ID>


> <Submission Fragments>


$$$$
ligprep_COVID_compounds-withfrags-smallmolecules-forvalidation.maegz:6
                    3D
 Structure written by MMmdl.
 57 60  0  0  1  0            999 V2000
    0.6907    8.6805   19.6536 C   0  0  0  0  0  0
    1.8759    7.9398   20.2999 C   0  0  1  0  0  0
    1.3792    7.1503   21.5120 C   0  0  0  0  0  0
    1.3046    7.7893   22.7733 C   0  0  0  0  0  0
    0.8917    7.0863   23.9150 C   0  0  0  0  0  0
    0.5496    5.7306   23.8098 C   0  0  0  0  0  0
    0.5945    5.0795   22.5622 C   0  0  0  0  0  0
    0.2606    3.7533   22.5450 O   0  0  0  0  0  0
    0.9886    5.7902   21.3896 C   0  0  0  0  0  0
    0.9842    5.1355   20.0411 C   0  0  0  0  0  0
    0.2042    4.2085   19.8129 O   0  0  0  0  0  0
    1.8837    5.6959   18.9784 C   0  0  0  0  0  0
    2.6295    6.9887   19.3124 C   0  0  1  0  0  0
    3.4210    7.5824   18.0963 C   0  0  1  0  0  0
    3.0184    7.1282   16.6611 C   0  0  2  0  0  0
    1.7759    7.9050   16.0838 C   0  0  1  0  0  0
    2.1088    8.9781   15.0936 N   0  3  0  0  0  0
    2.5347   10.2774   15.6561 C   0  0  0  0  0  0
    2.9135    8.5695   13.9141 C   0  0  0  0  0  0
    0.6693    7.0708   15.4030 C   0  0  0  0  0  0
   -0.3377    7.8170   15.3200 O   0  5  0  0  0  0
    0.9316    5.7742   14.9613 C   0  0  0  0  0  0
   -0.1162    5.0628   14.2062 C   0  0  0  0  0  0
    0.0245    3.7361   14.1706 N   0  0  0  0  0  0
   -1.0848    5.5730   13.6486 O   0  0  0  0  0  0
    2.2468    5.1682   15.2657 C   0  0  0  0  0  0
    2.7739    4.2981   14.5666 O   0  0  0  0  0  0
    2.8983    5.5799   16.6060 C   0  0  2  0  0  0
    2.0812    5.0497   17.8000 C   0  0  0  0  0  0
    1.5763    3.8364   17.5396 O   0  0  0  0  0  0
    4.1968    5.0103   16.6580 O   0  0  0  0  0  0
    3.5752    8.9826   18.1687 O   0  0  0  0  0  0
    2.7956    8.9371   20.7214 O   0  0  0  0  0  0
   -0.0290    7.9854   19.2203 H   0  0  0  0  0  0
    1.0119    9.3644   18.8705 H   0  0  0  0  0  0
    0.1588    9.2827   20.3908 H   0  0  0  0  0  0
    1.5662    8.8318   22.8808 H   0  0  0  0  0  0
    0.8470    7.5844   24.8722 H   0  0  0  0  0  0
    0.2477    5.1929   24.6964 H   0  0  0  0  0  0
    0.0353    3.4086   23.3944 H   0  0  0  0  0  0
    3.4339    6.6013   19.9439 H   0  0  0  0  0  0
    4.4346    7.2045   18.2284 H   0  0  0  0  0  0
    3.8756    7.3754   16.0368 H   0  0  0  0  0  0
    1.3028    8.3934   16.9335 H   0  0  0  0  0  0
    3.5774   10.2496   15.9679 H   0  0  0  0  0  0
    1.9189   10.5650   16.5087 H   0  0  0  0  0  0
    2.4395   11.0607   14.9038 H   0  0  0  0  0  0
    3.9721    8.4724   14.1534 H   0  0  0  0  0  0
    2.8285    9.3214   13.1290 H   0  0  0  0  0  0
    2.5687    7.6262   13.4917 H   0  0  0  0  0  0
    0.8230    3.3091   14.6162 H   0  0  0  0  0  0
   -0.6530    3.1891   13.6626 H   0  0  0  0  0  0
    2.1413    3.4064   16.9055 H   0  0  0  0  0  0
    4.4151    4.8643   17.5814 H   0  0  0  0  0  0
    3.4748    9.2309   19.0852 H   0  0  0  0  0  0
    3.4436    8.5205   21.2731 H   0  0  0  0  0  0
    1.1767    9.1418   14.7271 H   0  0  0  0  0  0
  1  2  1  0  0  0
  1 34  1  0  0  0
  1 35  1  0  0  0
  1 36  1  0  0  0
  2  3  1  0  0  0
  2 33  1  0  0  0
  2 13  1  0  0  0
  3  4  2  0  0  0
  3  9  1  0  0  0
  4  5  1  0  0  0
  4 37  1  0  0  0
  5  6  2  0  0  0
  5 38  1  0  0  0
  6  7  1  0  0  0
  6 39  1  0  0  0
  7  8  1  0  0  0
  7  9  2  0  0  0
  8 40  1  0  0  0
  9 10  1  0  0  0
 10 11  2  0  0  0
 10 12  1  0  0  0
 12 13  1  0  0  0
 12 29  2  0  0  0
 13 14  1  0  0  0
 13 41  1  0  0  0
 14 15  1  0  0  0
 14 32  1  0  0  0
 14 42  1  0  0  0
 15 16  1  0  0  0
 15 28  1  0  0  0
 15 43  1  0  0  0
 16 17  1  0  0  0
 16 20  1  0  0  0
 16 44  1  0  0  0
 17 18  1  0  0  0
 17 19  1  0  0  0
 17 57  1  0  0  0
 18 45  1  0  0  0
 18 46  1  0  0  0
 18 47  1  0  0  0
 19 48  1  0  0  0
 19 49  1  0  0  0
 19 50  1  0  0  0
 20 21  1  0  0  0
 20 22  2  0  0  0
 22 23  1  0  0  0
 22 26  1  0  0  0
 23 24  1  0  0  0
 23 25  2  0  0  0
 24 51  1  0  0  0
 24 52  1  0  0  0
 26 27  2  0  0  0
 26 28  1  0  0  0
 28 29  1  0  0  0
 28 31  1  0  0  0
 29 30  1  0  0  0
 30 53  1  0  0  0
 31 54  1  0  0  0
 32 55  1  0  0  0
 33 56  1  0  0  0
M  CHG  2  17   1  21  -1
M  END
> <s_m_entry_id>
1291

> <s_m_entry_name>
Compounds-withfrags-for-validation-docking.1911

> <s_m_Source_Path>
/home/rodolpho/data/melina/maestro/glide-dock_XP_5RGK_M-PRO_VALIDATION

> <s_m_Source_File>
glide-dock_XP_5RGK_M-PRO_VALIDATION_pv.maegz

> <i_m_Source_File_Index>
1291

> <CID>
Oxitetracyclin

> <Potency>
15.15

> <pIC50>
4.81959

> <Source>
https://doi.org/10.1101/2020.03.23.004580

> <smiles>
C(C1(C2=C(C(=C(C(O[H])=C2C(O[H])=C2C1(C(C1(C(N(C([H])([H])[H])C([H])([H])[H])([H])C(=O)C(=C(N([H])[H])O[H])C(=O)C1(C2=O)O[H])[H])(O[H])[H])[H])[H])[H])[H])O[H])([H])([H])[H]

> <Outcome>
Inactive

> <StandardizerResult>
Clear Stereo (ID: ClearStereo)
Wedge Clean (ID: WedgeClean)
Mesomerize (ID: Mesomerize)
Tautomerize (ID: Tautomerize)
Aromatize (ID: Aromatize)
Add Explicit Hydrogens (ID: AddExplicitH)
Neutralize (ID: Neutralize)
Clean 2D (ID: Clean2D)

> <chiral flag>
0

> <version>
0

> <i_lp_mmshare_version>
41011

> <i_f3d_flags>
0

> <s_epik_input>
W09IXWMxW2NIXVtjSF1bY0hdYyhbQ0BAXTIoW0NIM10pW09IXSljMUMoPU8pQyg9QzNbT0hdKVtDQEhdMltDQEhdKFtPSF0pW0NAQEhdKFtDQEBdMzRbT0hdKVtDQEBIXShOKFtDSDNdKVtDSDNdKUMoPU8pW0NASF0oQzQ9TylDKD1PKVtOSDJd

> <s_epik_cmdline>
J2VwaWtfcHl0aG9uJywgJy1waHQnLCAnMC41JywgJy1waCcsICc3LjQnLCAnLXRuJywgJzgnLCAnLW1hJywgJzIwMCcsICctaW1hZScsICc8aW5maWxlLm1hZT4nLCAnLW9tYWUnLCAnPG91dGZpbGUubWFlPic=

> <r_epik_Ionization_Penalty>
0.6144

> <r_epik_Ionization_Penalty_Charging>
0.5087

> <r_epik_Ionization_Penalty_Neutral>
0.1057

> <r_epik_State_Penalty>
0.5157

> <r_epik_Charging_Adjusted_Penalty>
1.02439

> <i_epik_Tot_Q>
0

> <i_epik_Tot_abs_Q>
2

> <s_lp_Force_Field>
OPLS3

> <r_lp_Energy>
56.669

> <b_lp_Chiralities_Consistent>
1

> <s_lp_Variant>
ligprep_COVID_compounds-withfrags-smallmolecules-forvalidation.maegz:6-39

> <i_glide_original_lignum>
91

> <s_i_glide_gridfile>
glide-grid_5RGK_M-PRO_COVID

> <i_i_glide_lignum>
91

> <r_i_docking_score>
-4.36052351609582

> <r_i_glide_ligand_efficiency>
-0.132137076245328

> <r_i_glide_ligand_efficiency_sa>
-0.423834207828185

> <r_i_glide_ligand_efficiency_ln>
-0.96975785239727

> <r_glide_XP_GScore>
-4.87623051609582

> <r_i_glide_gscore>
-4.87623051609582

> <r_i_glide_evdw>
-15.9726495742798

> <r_i_glide_ecoul>
-14.9951047897339

> <r_i_glide_energy>
-30.9677543640137

> <r_i_glide_einternal>
4.67083883285522

> <r_i_glide_emodel>
-31.950397017258

> <r_glide_XP_HBond>
-1.76082039522356

> <i_i_glide_confnum>
1

> <i_i_glide_posenum>
7

> <r_i_glide_eff_state_penalty>
0.515707

> <i_glide_XP_PoseRank>
1

> <r_lp_tautomer_probability>


> <s_epik_Chemistry_Notes>


> <MW>


> <cLogP>


> <TPSA>


> <Rotatable Bonds>


> <Fraction sp3>


> <HBA>


> <HBD>


> <Structure ID>


> <Submission Fragments>


$$$$
ligprep_COVID_compounds-withfrags-smallmolecules-forvalidation.maegz:78
                    3D
 Structure written by MMmdl.
 50 53  0  0  1  0            999 V2000
    0.6183    2.1422   27.5677 C   0  0  0  0  0  0
    1.3889    2.9791   26.6549 N   0  0  0  0  0  0
    1.2668    4.4304   26.7349 C   0  0  0  0  0  0
    2.2501    2.3893   25.7002 C   0  0  0  0  0  0
    3.1123    3.1818   24.9028 C   0  0  0  0  0  0
    3.9737    2.5961   23.9559 C   0  0  0  0  0  0
    3.9925    1.1944   23.7712 C   0  0  0  0  0  0
    4.9137    0.5238   22.7542 C   0  0  1  0  0  0
    5.1893    1.4368   21.5461 C   0  0  0  0  0  0
    5.4635    0.6951   20.2843 C   0  0  0  0  0  0
    5.9881   -0.6285   20.1493 C   0  0  0  0  0  0
    6.0639   -1.0343   18.8490 C   0  0  0  0  0  0
    5.5750    0.2213   17.7707 S   0  0  0  0  0  0
    5.1749    1.2617   19.0772 C   0  0  0  0  0  0
    6.2167    0.0775   23.4480 C   0  0  0  0  0  0
    7.0574    0.9188   23.7707 O   0  0  0  0  0  0
    6.3531   -1.2466   23.6699 N   0  0  0  0  0  0
    7.3151   -1.7667   24.5412 N   0  0  0  0  0  0
    7.8736   -1.1737   25.6154 C   0  0  0  0  0  0
    8.6995   -1.9507   26.3147 N   0  0  0  0  0  0
    8.6531   -3.1491   25.6055 C   0  0  0  0  0  0
    9.3142   -4.3753   25.8408 C   0  0  0  0  0  0
    9.1208   -5.4691   24.9720 C   0  0  0  0  0  0
    8.2573   -5.3607   23.8607 C   0  0  0  0  0  0
    7.5746   -4.1542   23.6074 C   0  0  0  0  0  0
    7.7801   -3.0666   24.4755 C   0  0  0  0  0  0
    3.1470    0.3978   24.5706 C   0  0  0  0  0  0
    2.2858    0.9852   25.5161 C   0  0  0  0  0  0
   -0.1283    1.5653   27.0209 H   0  0  0  0  0  0
    0.0948    2.7431   28.3115 H   0  0  0  0  0  0
    1.2707    1.4530   28.1049 H   0  0  0  0  0  0
    1.0085    4.8504   25.7620 H   0  0  0  0  0  0
    2.2033    4.8763   27.0715 H   0  0  0  0  0  0
    0.4865    4.7260   27.4368 H   0  0  0  0  0  0
    3.1393    4.2560   25.0029 H   0  0  0  0  0  0
    4.6215    3.2420   23.3785 H   0  0  0  0  0  0
    4.3748   -0.3567   22.4004 H   0  0  0  0  0  0
    4.3111    2.0590   21.3661 H   0  0  0  0  0  0
    5.9954    2.1436   21.7514 H   0  0  0  0  0  0
    6.2696   -1.2518   20.9824 H   0  0  0  0  0  0
    6.3750   -1.9897   18.4550 H   0  0  0  0  0  0
    4.7567    2.2363   18.8799 H   0  0  0  0  0  0
    5.7392   -1.9540   23.2817 H   0  0  0  0  0  0
    7.6454   -0.1654   25.9301 H   0  0  0  0  0  0
    9.9736   -4.4790   26.6899 H   0  0  0  0  0  0
    9.6390   -6.3996   25.1631 H   0  0  0  0  0  0
    8.1244   -6.2081   23.2043 H   0  0  0  0  0  0
    6.9133   -4.0604   22.7586 H   0  0  0  0  0  0
    3.1577   -0.6767   24.4663 H   0  0  0  0  0  0
    1.6555    0.3283   26.0952 H   0  0  0  0  0  0
  1  2  1  0  0  0
  1 29  1  0  0  0
  1 30  1  0  0  0
  1 31  1  0  0  0
  2  3  1  0  0  0
  2  4  1  0  0  0
  3 32  1  0  0  0
  3 33  1  0  0  0
  3 34  1  0  0  0
  4  5  2  0  0  0
  4 28  1  0  0  0
  5  6  1  0  0  0
  5 35  1  0  0  0
  6  7  2  0  0  0
  6 36  1  0  0  0
  7  8  1  0  0  0
  7 27  1  0  0  0
  8  9  1  0  0  0
  8 15  1  0  0  0
  8 37  1  0  0  0
  9 10  1  0  0  0
  9 38  1  0  0  0
  9 39  1  0  0  0
 10 11  1  0  0  0
 10 14  2  0  0  0
 11 12  2  0  0  0
 11 40  1  0  0  0
 12 13  1  0  0  0
 12 41  1  0  0  0
 13 14  1  0  0  0
 14 42  1  0  0  0
 15 16  2  0  0  0
 15 17  1  0  0  0
 17 18  1  0  0  0
 17 43  1  0  0  0
 18 19  1  0  0  0
 18 26  1  0  0  0
 19 20  2  0  0  0
 19 44  1  0  0  0
 20 21  1  0  0  0
 21 22  2  0  0  0
 21 26  1  0  0  0
 22 23  1  0  0  0
 22 45  1  0  0  0
 23 24  2  0  0  0
 23 46  1  0  0  0
 24 25  1  0  0  0
 24 47  1  0  0  0
 25 26  2  0  0  0
 25 48  1  0  0  0
 27 28  2  0  0  0
 27 49  1  0  0  0
 28 50  1  0  0  0
M  END
> <s_m_entry_id>
1298

> <s_m_entry_name>
Compounds-withfrags-for-validation-docking.1839

> <s_m_Source_Path>
/home/rodolpho/data/melina/maestro/glide-dock_XP_5RGK_M-PRO_VALIDATION

> <s_m_Source_File>
glide-dock_XP_5RGK_M-PRO_VALIDATION_pv.maegz

> <i_m_Source_File_Index>
1298

> <CID>
ALP-POS-a3de0cb1-7

> <Potency>
99.5

> <pIC50>
4.00218

> <Source>
Postera

> <smiles>
CN(C)c1ccc(C(Cc2ccsc2)C(=O)Nn2cnc3ccccc32)cc1

> <Outcome>
Inactive

> <StandardizerResult>
Clear Stereo (ID: ClearStereo)
Wedge Clean (ID: WedgeClean)
Mesomerize (ID: Mesomerize)
Tautomerize (ID: Tautomerize)
Aromatize (ID: Aromatize)
Add Explicit Hydrogens (ID: AddExplicitH)
Neutralize (ID: Neutralize)
Clean 2D (ID: Clean2D)

> <chiral flag>
0

> <version>
0

> <i_lp_mmshare_version>
41011

> <i_f3d_flags>
0

> <s_epik_input>
W0NIM11OKFtDSDNdKWMxW2NIXVtjSF1jKFtjSF1bY0hdMSlbQ0BASF0oW0NIMl1jMltjSF1bY0hdc1tjSF0yKUMoPU8pW05IXW4oW2NIXW4zKWMoYzM0KVtjSF1bY0hdW2NIXVtjSF00

> <s_epik_cmdline>
J2VwaWtfcHl0aG9uJywgJy1waHQnLCAnMC41JywgJy1waCcsICc3LjQnLCAnLXRuJywgJzgnLCAnLW1hJywgJzIwMCcsICctaW1hZScsICc8aW5maWxlLm1hZT4nLCAnLW9tYWUnLCAnPG91dGZpbGUubWFlPic=

> <r_epik_Ionization_Penalty>
0.013

> <r_epik_Ionization_Penalty_Charging>
0.0

> <r_epik_Ionization_Penalty_Neutral>
0.013

> <r_epik_State_Penalty>
0.0087

> <r_epik_Charging_Adjusted_Penalty>
0.00865637

> <i_epik_Tot_Q>
0

> <i_epik_Tot_abs_Q>
0

> <s_lp_Force_Field>
OPLS3

> <r_lp_Energy>
41.9554

> <b_lp_Chiralities_Consistent>
1

> <s_lp_Variant>
ligprep_COVID_compounds-withfrags-smallmolecules-forvalidation.maegz:78-1

> <i_glide_original_lignum>
256

> <s_i_glide_gridfile>
glide-grid_5RGK_M-PRO_COVID

> <i_i_glide_lignum>
256

> <r_i_docking_score>
-4.3545439377722

> <r_i_glide_ligand_efficiency>
-0.155519426349007

> <r_i_glide_ligand_efficiency_sa>
-0.472248574439281

> <r_i_glide_ligand_efficiency_ln>
-1.00515659580348

> <r_glide_XP_GScore>
-4.3632003077722

> <r_i_glide_gscore>
-4.3632003077722

> <r_i_glide_evdw>
-34.2943305969238

> <r_i_glide_ecoul>
-9.29714584350586

> <r_i_glide_energy>
-43.5914764404297

> <r_i_glide_einternal>
6.48996019363403

> <r_i_glide_emodel>
-51.0035125642597

> <r_glide_XP_HBond>
-0.961890815731687

> <i_i_glide_confnum>
1

> <i_i_glide_posenum>
4

> <r_i_glide_eff_state_penalty>
0.00865637

> <i_glide_XP_PoseRank>
1

> <MW>
390.15

> <cLogP>
4.26

> <TPSA>
50.16

> <Rotatable Bonds>
6

> <Fraction sp3>
0.18

> <HBA>
5

> <HBD>
1

> <r_lp_tautomer_probability>


> <s_epik_Chemistry_Notes>


> <Structure ID>


> <Submission Fragments>


$$$$
ligprep_COVID_compounds-withfrags-smallmolecules-forvalidation.maegz:4
                    3D
 Structure written by MMmdl.
 93 97  0  0  1  0            999 V2000
    9.3441    6.6067   23.9069 C   0  0  0  0  0  0
    8.1398    5.6468   23.9963 C   0  0  0  0  0  0
    8.4502    4.3714   23.1985 C   0  0  0  0  0  0
    7.8529    5.2663   25.4634 C   0  0  0  0  0  0
    6.9586    6.2427   23.3670 N   0  0  0  0  0  0
    6.3243    7.3872   23.6873 C   0  0  0  0  0  0
    6.6700    8.1185   24.6141 O   0  0  0  0  0  0
    5.0969    7.7874   22.8502 C   0  0  1  0  0  0
    5.6099    8.5457   21.5997 C   0  0  0  0  0  0
    4.4782    8.9763   20.7833 N   0  0  0  0  0  0
    4.9102    9.8868   19.7246 C   0  0  0  0  0  0
    3.8001   10.6593   19.0203 C   0  0  0  0  0  0
    2.4348   10.5661   19.3801 C   0  0  0  0  0  0
    1.4881   11.3280   18.6733 C   0  0  0  0  0  0
    1.9417   12.1763   17.6439 C   0  0  0  0  0  0
    3.2424   12.2989   17.3077 N   0  0  0  0  0  0
    4.1415   11.5543   17.9829 C   0  0  0  0  0  0
    3.8801    7.7507   20.2563 C   0  0  0  0  0  0
    3.2196    7.0253   21.4388 C   0  0  0  0  0  0
    4.2056    6.6366   22.4904 N   0  3  2  0  0  0
    3.5264    6.0264   23.6767 C   0  0  0  0  0  0
    3.5742    4.4824   23.6993 C   0  0  1  0  0  0
    3.0035    3.8284   22.4222 C   0  0  0  0  0  0
    2.8060    2.2916   22.4231 C   0  0  1  0  0  0
    2.1064    1.7573   21.1444 C   0  0  0  0  0  0
    1.0396    2.6727   20.5675 C   0  0  0  0  0  0
   -0.2763    2.6337   21.0759 C   0  0  0  0  0  0
   -1.2548    3.5141   20.5727 C   0  0  0  0  0  0
   -0.9189    4.4352   19.5603 C   0  0  0  0  0  0
    0.3937    4.4727   19.0459 C   0  0  0  0  0  0
    1.3689    3.5884   19.5456 C   0  0  0  0  0  0
    4.0837    1.4700   22.6603 C   0  0  0  0  0  0
    4.0197    0.4930   23.4001 O   0  0  0  0  0  0
    5.1999    1.8363   21.9981 N   0  0  0  0  0  0
    6.4188    1.0654   21.7461 C   0  0  1  0  0  0
    6.9601    0.2798   22.9265 C   0  0  0  0  0  0
    7.6621    0.7605   24.0492 C   0  0  0  0  0  0
    8.1356   -0.1749   24.9951 C   0  0  0  0  0  0
    7.8914   -1.5584   24.8227 C   0  0  0  0  0  0
    7.1751   -2.0255   23.6982 C   0  0  0  0  0  0
    6.7317   -1.0791   22.7579 C   0  0  0  0  0  0
    5.9749   -1.3330   21.4846 C   0  0  0  0  0  0
    6.1082   -0.0276   20.6861 C   0  0  2  0  0  0
    7.1751   -0.1633   19.7704 O   0  0  0  0  0  0
    4.8994    4.0894   23.9602 O   0  0  0  0  0  0
   10.2500    6.1354   24.2918 H   0  0  0  0  0  0
    9.1769    7.5101   24.4922 H   0  0  0  0  0  0
    9.5429    6.9063   22.8773 H   0  0  0  0  0  0
    8.7177    4.6005   22.1709 H   0  0  0  0  0  0
    7.5823    3.7172   23.1539 H   0  0  0  0  0  0
    9.2782    3.8116   23.6341 H   0  0  0  0  0  0
    8.7094    4.7604   25.9121 H   0  0  0  0  0  0
    7.0022    4.5903   25.5443 H   0  0  0  0  0  0
    7.6366    6.1406   26.0786 H   0  0  0  0  0  0
    6.6141    5.7181   22.5658 H   0  0  0  0  0  0
    4.5046    8.4870   23.4439 H   0  0  0  0  0  0
    6.1674    9.4256   21.9238 H   0  0  0  0  0  0
    6.2985    7.9339   21.0095 H   0  0  0  0  0  0
    5.5654   10.6396   20.1612 H   0  0  0  0  0  0
    5.5050    9.3562   18.9799 H   0  0  0  0  0  0
    2.1013    9.9248   20.1819 H   0  0  0  0  0  0
    0.4369   11.2667   18.9120 H   0  0  0  0  0  0
    1.2407   12.7765   17.0810 H   0  0  0  0  0  0
    5.1734   11.6810   17.6924 H   0  0  0  0  0  0
    3.1193    7.9794   19.5095 H   0  0  0  0  0  0
    4.6215    7.1214   19.7584 H   0  0  0  0  0  0
    2.4568    7.6759   21.8713 H   0  0  0  0  0  0
    2.6953    6.1502   21.0586 H   0  0  0  0  0  0
    3.9604    6.3900   24.6083 H   0  0  0  0  0  0
    2.4868    6.3539   23.7215 H   0  0  0  0  0  0
    2.9783    4.1491   24.5502 H   0  0  0  0  0  0
    2.0236    4.2874   22.2880 H   0  0  0  0  0  0
    3.5748    4.1062   21.5419 H   0  0  0  0  0  0
    2.1385    2.0821   23.2596 H   0  0  0  0  0  0
    2.8370    1.5624   20.3568 H   0  0  0  0  0  0
    1.6428    0.7965   21.3695 H   0  0  0  0  0  0
   -0.5371    1.9376   21.8614 H   0  0  0  0  0  0
   -2.2624    3.4861   20.9642 H   0  0  0  0  0  0
   -1.6670    5.1121   19.1766 H   0  0  0  0  0  0
    0.6505    5.1770   18.2660 H   0  0  0  0  0  0
    2.3772    3.6242   19.1533 H   0  0  0  0  0  0
    5.1749    2.7358   21.5197 H   0  0  0  0  0  0
    7.1747    1.7637   21.3870 H   0  0  0  0  0  0
    7.8422    1.8140   24.1922 H   0  0  0  0  0  0
    8.6771    0.1709   25.8638 H   0  0  0  0  0  0
    8.2480   -2.2636   25.5593 H   0  0  0  0  0  0
    6.9707   -3.0775   23.5614 H   0  0  0  0  0  0
    6.2599   -2.2434   20.9542 H   0  0  0  0  0  0
    4.9305   -1.3637   21.7707 H   0  0  0  0  0  0
    5.2157    0.1839   20.0964 H   0  0  0  0  0  0
    7.9087   -0.5310   20.2487 H   0  0  0  0  0  0
    5.4009    4.1893   23.1554 H   0  0  0  0  0  0
    4.7970    5.9207   22.0748 H   0  0  0  0  0  0
  1  2  1  0  0  0
  1 46  1  0  0  0
  1 47  1  0  0  0
  1 48  1  0  0  0
  2  3  1  0  0  0
  2  4  1  0  0  0
  2  5  1  0  0  0
  3 49  1  0  0  0
  3 50  1  0  0  0
  3 51  1  0  0  0
  4 52  1  0  0  0
  4 53  1  0  0  0
  4 54  1  0  0  0
  5  6  1  0  0  0
  5 55  1  0  0  0
  6  7  2  0  0  0
  6  8  1  0  0  0
  8  9  1  0  0  0
  8 20  1  0  0  0
  8 56  1  0  0  0
  9 10  1  0  0  0
  9 57  1  0  0  0
  9 58  1  0  0  0
 10 11  1  0  0  0
 10 18  1  0  0  0
 11 12  1  0  0  0
 11 59  1  0  0  0
 11 60  1  0  0  0
 12 13  2  0  0  0
 12 17  1  0  0  0
 13 14  1  0  0  0
 13 61  1  0  0  0
 14 15  2  0  0  0
 14 62  1  0  0  0
 15 16  1  0  0  0
 15 63  1  0  0  0
 16 17  2  0  0  0
 17 64  1  0  0  0
 18 19  1  0  0  0
 18 65  1  0  0  0
 18 66  1  0  0  0
 19 20  1  0  0  0
 19 67  1  0  0  0
 19 68  1  0  0  0
 20 21  1  0  0  0
 20 93  1  0  0  0
 21 22  1  0  0  0
 21 69  1  0  0  0
 21 70  1  0  0  0
 22 23  1  0  0  0
 22 45  1  0  0  0
 22 71  1  0  0  0
 23 24  1  0  0  0
 23 72  1  0  0  0
 23 73  1  0  0  0
 24 25  1  0  0  0
 24 32  1  0  0  0
 24 74  1  0  0  0
 25 26  1  0  0  0
 25 75  1  0  0  0
 25 76  1  0  0  0
 26 27  2  0  0  0
 26 31  1  0  0  0
 27 28  1  0  0  0
 27 77  1  0  0  0
 28 29  2  0  0  0
 28 78  1  0  0  0
 29 30  1  0  0  0
 29 79  1  0  0  0
 30 31  2  0  0  0
 30 80  1  0  0  0
 31 81  1  0  0  0
 32 33  2  0  0  0
 32 34  1  0  0  0
 34 35  1  0  0  0
 34 82  1  0  0  0
 35 36  1  0  0  0
 35 43  1  0  0  0
 35 83  1  0  0  0
 36 37  2  0  0  0
 36 41  1  0  0  0
 37 38  1  0  0  0
 37 84  1  0  0  0
 38 39  2  0  0  0
 38 85  1  0  0  0
 39 40  1  0  0  0
 39 86  1  0  0  0
 40 41  2  0  0  0
 40 87  1  0  0  0
 41 42  1  0  0  0
 42 43  1  0  0  0
 42 88  1  0  0  0
 42 89  1  0  0  0
 43 44  1  0  0  0
 43 90  1  0  0  0
 44 91  1  0  0  0
 45 92  1  0  0  0
M  CHG  1  20   1
M  END
> <s_m_entry_id>
1314

> <s_m_entry_name>
Compounds-withfrags-for-validation-docking.1913

> <s_m_Source_Path>
/home/rodolpho/data/melina/maestro/glide-dock_XP_5RGK_M-PRO_VALIDATION

> <s_m_Source_File>
glide-dock_XP_5RGK_M-PRO_VALIDATION_pv.maegz

> <i_m_Source_File_Index>
1314

> <CID>
Indinavir

> <Potency>
43.13

> <pIC50>
4.36522

> <Source>
https://doi.org/10.1101/2020.03.23.004580

> <smiles>
C(C(C([H])([H])[H])(C([H])([H])[H])N(C(=O)C1(C([H])([H])N(C(C2=C([H])C([H])=C([H])N=C2[H])([H])[H])C([H])([H])C([H])([H])N1C(C(C(C(C(C1=C([H])C([H])=C([H])C([H])=C1[H])([H])[H])(C(=O)N(C1(C2=C(C(=C(C([H])=C2C([H])([H])C1(O[H])[H])[H])[H])[H])[H])[H])[H])([H])[H])(O[H])[H])([H])[H])[H])[H])([H])([H])[H]

> <Outcome>
Inactive

> <StandardizerResult>
Clear Stereo (ID: ClearStereo)
Wedge Clean (ID: WedgeClean)
Mesomerize (ID: Mesomerize)
Tautomerize (ID: Tautomerize)
Aromatize (ID: Aromatize)
Add Explicit Hydrogens (ID: AddExplicitH)
Neutralize (ID: Neutralize)
Clean 2D (ID: Clean2D)

> <chiral flag>
0

> <version>
0

> <i_lp_mmshare_version>
41011

> <i_f3d_flags>
0

> <s_epik_input>
W2NIXTFuW2NIXVtjSF1bY0hdYzFbQ0gyXU4oW0NIMl1bQ0BASF0yQyg9TylbTkhdQyhbQ0gzXSkoW0NIM10pW0NIM10pW0NIMl1bQ0gyXU4yW0NIMl1bQ0BIXShbT0hdKVtDSDJdW0NAQEhdKFtDSDJdYzNbY0hdW2NIXVtjSF1bY0hdW2NIXTMpQyg9TylbTkhdW0NAQEhdNFtDQEBIXShbT0hdKVtDSDJdYyhjNDUpW2NIXVtjSF1bY0hdW2NIXTU=

> <s_epik_cmdline>
J2VwaWtfcHl0aG9uJywgJy1waHQnLCAnMC41JywgJy1waCcsICc3LjQnLCAnLXRuJywgJzgnLCAnLW1hJywgJzIwMCcsICctaW1hZScsICc8aW5maWxlLm1hZT4nLCAnLW9tYWUnLCAnPG91dGZpbGUubWFlPic=

> <r_epik_Ionization_Penalty>
0.3395

> <r_epik_Ionization_Penalty_Charging>
0.3352

> <r_epik_Ionization_Penalty_Neutral>
0.0044

> <r_epik_State_Penalty>
0.5191

> <r_epik_Charging_Adjusted_Penalty>
0.854238

> <i_epik_Tot_Q>
1

> <i_epik_Tot_abs_Q>
1

> <s_lp_Force_Field>
OPLS3

> <r_lp_Energy>
54.139

> <b_lp_Chiralities_Consistent>
1

> <s_lp_Variant>
ligprep_COVID_compounds-withfrags-smallmolecules-forvalidation.maegz:4-15

> <i_glide_original_lignum>
34

> <s_i_glide_gridfile>
glide-grid_5RGK_M-PRO_COVID

> <i_i_glide_lignum>
34

> <r_i_docking_score>
-4.34487827325389

> <r_i_glide_ligand_efficiency>
-0.0965528505167532

> <r_i_glide_ligand_efficiency_sa>
-0.343428187096698

> <r_i_glide_ligand_efficiency_ln>
-0.903928304202925

> <r_glide_XP_GScore>
-4.86395027325389

> <r_i_glide_gscore>
-4.86395027325389

> <r_i_glide_evdw>
-32.9648933410645

> <r_i_glide_ecoul>
-20.6990261077881

> <r_i_glide_energy>
-53.6639194488525

> <r_i_glide_einternal>
9.6486234664917

> <r_i_glide_emodel>
-74.2150489846701

> <r_glide_XP_HBond>
-2.71715042660793

> <i_i_glide_confnum>
2

> <i_i_glide_posenum>
8

> <r_i_glide_eff_state_penalty>
0.519072

> <i_glide_XP_PoseRank>
1

> <r_lp_tautomer_probability>


> <s_epik_Chemistry_Notes>


> <MW>


> <cLogP>


> <TPSA>


> <Rotatable Bonds>


> <Fraction sp3>


> <HBA>


> <HBD>


> <Structure ID>


> <Submission Fragments>


$$$$
ligprep_COVID_compounds-withfrags-smallmolecules-forvalidation.maegz:26
                    3D
 Structure written by MMmdl.
 70 73  0  0  1  0            999 V2000
    9.3359   -5.4592   25.3674 C   0  0  0  0  0  0
    8.9458   -4.1330   25.6937 O   0  0  0  0  0  0
    8.6674   -3.2364   24.7158 C   0  0  0  0  0  0
    9.5081   -2.7360   23.9627 O   0  0  0  0  0  0
    7.1513   -2.8692   24.6213 C   0  0  1  0  0  0
    6.6455   -2.3323   25.9940 C   0  0  0  0  0  0
    6.9472   -1.7573   23.5129 C   0  0  0  0  0  0
    7.0413   -0.2995   23.8638 N   0  0  0  0  0  0
    8.0647    0.1091   24.6842 C   0  0  0  0  0  0
    8.3285   -0.4213   25.7651 O   0  0  0  0  0  0
    8.9114    1.1903   24.2321 C   0  0  0  0  0  0
   10.2966    1.3426   24.2039 C   0  0  0  0  0  0
   10.5562    2.6507   23.7938 C   0  0  0  0  0  0
    9.3238    3.2651   23.6577 C   0  0  0  0  0  0
    8.3298    2.3910   23.9603 O   0  0  0  0  0  0
    6.3161    0.6730   22.9550 C   0  0  2  0  0  0
    4.8895    1.1469   23.3592 C   0  0  0  0  0  0
    4.1967    0.4086   24.0602 O   0  0  0  0  0  0
    4.4959    2.3625   22.9367 N   0  0  0  0  0  0
    3.1327    2.8726   23.0444 C   0  0  0  0  0  0
    2.6596    3.6175   21.7810 C   0  0  0  0  0  0
    1.1749    3.9466   21.8240 C   0  0  0  0  0  0
    0.7508    5.2549   22.0796 C   0  0  0  0  0  0
   -0.6109    5.5591   22.1082 C   0  0  0  0  0  0
   -1.5547    4.5569   21.8821 C   0  0  0  0  0  0
   -1.1375    3.2503   21.6268 C   0  0  0  0  0  0
   -2.0527    2.2794   21.4077 F   0  0  0  0  0  0
    0.2241    2.9458   21.5967 C   0  0  0  0  0  0
    6.2187    0.2089   21.5122 C   0  0  0  0  0  0
    6.0661   -1.1459   21.1729 C   0  0  0  0  0  0
    5.9609   -1.5215   19.8329 C   0  0  0  0  0  0
    5.9971   -0.5237   18.8586 C   0  0  0  0  0  0
    6.1210    0.7940   19.1569 N   0  0  0  0  0  0
    6.2213    1.1394   20.4658 C   0  0  0  0  0  0
    6.3197   -4.1615   24.3146 C   0  0  0  0  0  0
    5.2880   -4.5872   25.1749 C   0  0  0  0  0  0
    4.5604   -5.7488   24.9208 C   0  0  0  0  0  0
    4.8569   -6.5288   23.8083 C   0  0  0  0  0  0
    5.8902   -6.1510   22.9574 C   0  0  0  0  0  0
    6.6209   -4.9897   23.2084 C   0  0  0  0  0  0
    7.6338   -4.6853   22.3637 F   0  0  0  0  0  0
    9.4457   -6.0450   26.2801 H   0  0  0  0  0  0
   10.2927   -5.4639   24.8435 H   0  0  0  0  0  0
    8.5919   -5.9492   24.7376 H   0  0  0  0  0  0
    6.6836   -3.0919   26.7755 H   0  0  0  0  0  0
    5.6087   -1.9994   25.9304 H   0  0  0  0  0  0
    7.2317   -1.4938   26.3680 H   0  0  0  0  0  0
    7.6546   -1.9710   22.7176 H   0  0  0  0  0  0
    5.9861   -1.9512   23.0439 H   0  0  0  0  0  0
   11.0335    0.5910   24.4464 H   0  0  0  0  0  0
   11.5254    3.1023   23.6415 H   0  0  0  0  0  0
    9.0162    4.2646   23.3876 H   0  0  0  0  0  0
    6.9151    1.5842   22.9751 H   0  0  0  0  0  0
    5.1768    2.9752   22.5123 H   0  0  0  0  0  0
    2.4786    2.0192   23.2277 H   0  0  0  0  0  0
    3.0379    3.5141   23.9236 H   0  0  0  0  0  0
    3.2264    4.5413   21.6505 H   0  0  0  0  0  0
    2.8656    3.0186   20.8921 H   0  0  0  0  0  0
    1.4749    6.0379   22.2527 H   0  0  0  0  0  0
   -0.9344    6.5707   22.3047 H   0  0  0  0  0  0
   -2.6086    4.7930   21.9044 H   0  0  0  0  0  0
    0.5383    1.9320   21.3943 H   0  0  0  0  0  0
    6.0347   -1.9017   21.9441 H   0  0  0  0  0  0
    5.8515   -2.5600   19.5572 H   0  0  0  0  0  0
    5.9183   -0.7745   17.8110 H   0  0  0  0  0  0
    6.2968    2.1967   20.6702 H   0  0  0  0  0  0
    5.0219   -4.0333   26.0608 H   0  0  0  0  0  0
    3.7681   -6.0466   25.5919 H   0  0  0  0  0  0
    4.2949   -7.4298   23.6119 H   0  0  0  0  0  0
    6.1322   -6.7648   22.1022 H   0  0  0  0  0  0
  1  2  1  0  0  0
  1 42  1  0  0  0
  1 43  1  0  0  0
  1 44  1  0  0  0
  2  3  1  0  0  0
  3  4  2  0  0  0
  3  5  1  0  0  0
  5  6  1  0  0  0
  5  7  1  0  0  0
  5 35  1  0  0  0
  6 45  1  0  0  0
  6 46  1  0  0  0
  6 47  1  0  0  0
  7  8  1  0  0  0
  7 48  1  0  0  0
  7 49  1  0  0  0
  8  9  1  0  0  0
  8 16  1  0  0  0
  9 10  2  0  0  0
  9 11  1  0  0  0
 11 12  2  0  0  0
 11 15  1  0  0  0
 12 13  1  0  0  0
 12 50  1  0  0  0
 13 14  2  0  0  0
 13 51  1  0  0  0
 14 15  1  0  0  0
 14 52  1  0  0  0
 16 17  1  0  0  0
 16 29  1  0  0  0
 16 53  1  0  0  0
 17 18  2  0  0  0
 17 19  1  0  0  0
 19 20  1  0  0  0
 19 54  1  0  0  0
 20 21  1  0  0  0
 20 55  1  0  0  0
 20 56  1  0  0  0
 21 22  1  0  0  0
 21 57  1  0  0  0
 21 58  1  0  0  0
 22 23  2  0  0  0
 22 28  1  0  0  0
 23 24  1  0  0  0
 23 59  1  0  0  0
 24 25  2  0  0  0
 24 60  1  0  0  0
 25 26  1  0  0  0
 25 61  1  0  0  0
 26 27  1  0  0  0
 26 28  2  0  0  0
 28 62  1  0  0  0
 29 30  2  0  0  0
 29 34  1  0  0  0
 30 31  1  0  0  0
 30 63  1  0  0  0
 31 32  2  0  0  0
 31 64  1  0  0  0
 32 33  1  0  0  0
 32 65  1  0  0  0
 33 34  2  0  0  0
 34 66  1  0  0  0
 35 36  2  0  0  0
 35 40  1  0  0  0
 36 37  1  0  0  0
 36 67  1  0  0  0
 37 38  2  0  0  0
 37 68  1  0  0  0
 38 39  1  0  0  0
 38 69  1  0  0  0
 39 40  2  0  0  0
 39 70  1  0  0  0
 40 41  1  0  0  0
M  END
> <s_m_entry_id>
1318

> <s_m_entry_name>
Compounds-withfrags-for-validation-docking.1891

> <s_m_Source_Path>
/home/rodolpho/data/melina/maestro/glide-dock_XP_5RGK_M-PRO_VALIDATION

> <s_m_Source_File>
glide-dock_XP_5RGK_M-PRO_VALIDATION_pv.maegz

> <i_m_Source_File_Index>
1318

> <CID>
ALP-POS-b0bc6a46-29

> <Potency>
99.5

> <pIC50>
4.00218

> <Source>
Postera

> <smiles>
COC(=O)C(C)(CN(C(=O)c1ccco1)C(C(=O)NCCc1cccc(F)c1)c1cccnc1)c1ccccc1F

> <Outcome>
Inactive

> <StandardizerResult>
Clear Stereo (ID: ClearStereo)
Wedge Clean (ID: WedgeClean)
Mesomerize (ID: Mesomerize)
Tautomerize (ID: Tautomerize)
Aromatize (ID: Aromatize)
Add Explicit Hydrogens (ID: AddExplicitH)
Neutralize (ID: Neutralize)
Clean 2D (ID: Clean2D)

> <chiral flag>
0

> <version>
0

> <i_lp_mmshare_version>
41011

> <i_f3d_flags>
0

> <s_epik_input>
RmMxW2NIXVtjSF1bY0hdW2NIXWMxW0NAQF0oW0NIM10pKEMoPU8pT1tDSDNdKVtDSDJdTihDKD1PKWMyW2NIXVtjSF1bY0hdbzIpW0NAQEhdKGMzW2NIXVtjSF1bY0hdbltjSF0zKUMoPU8pW05IXVtDSDJdW0NIMl1jNFtjSF1bY0hdW2NIXWMoRilbY0hdNA==

> <s_epik_cmdline>
J2VwaWtfcHl0aG9uJywgJy1waHQnLCAnMC41JywgJy1waCcsICc3LjQnLCAnLXRuJywgJzgnLCAnLW1hJywgJzIwMCcsICctaW1hZScsICc8aW5maWxlLm1hZT4nLCAnLW9tYWUnLCAnPG91dGZpbGUubWFlPic=

> <r_lp_tautomer_probability>
1.0

> <r_epik_Ionization_Penalty>
7.0E-4

> <r_epik_Ionization_Penalty_Charging>
0.0

> <r_epik_Ionization_Penalty_Neutral>
7.0E-4

> <r_epik_State_Penalty>
0.0

> <r_epik_Charging_Adjusted_Penalty>
0.0

> <i_epik_Tot_Q>
0

> <i_epik_Tot_abs_Q>
0

> <s_lp_Force_Field>
OPLS3

> <r_lp_Energy>
71.5458

> <b_lp_Chiralities_Consistent>
1

> <s_lp_Variant>
ligprep_COVID_compounds-withfrags-smallmolecules-forvalidation.maegz:26-3

> <i_glide_original_lignum>
147

> <s_i_glide_gridfile>
glide-grid_5RGK_M-PRO_COVID

> <i_i_glide_lignum>
147

> <r_i_docking_score>
-4.34289357385486

> <r_i_glide_ligand_efficiency>
-0.105924233508655

> <r_i_glide_ligand_efficiency_sa>
-0.365249767706744

> <r_i_glide_ligand_efficiency_ln>
-0.92135932418052

> <r_glide_XP_GScore>
-4.34289357385486

> <r_i_glide_gscore>
-4.34289357385486

> <r_i_glide_evdw>
-36.7511596679688

> <r_i_glide_ecoul>
-11.2706918716431

> <r_i_glide_energy>
-48.0218515396118

> <r_i_glide_einternal>
13.5499992370605

> <r_i_glide_emodel>
-65.5392013915936

> <r_glide_XP_HBond>
-0.431656899493744

> <i_i_glide_confnum>
1

> <i_i_glide_posenum>
8

> <r_i_glide_eff_state_penalty>
0.0

> <i_glide_XP_PoseRank>
1

> <s_epik_Chemistry_Notes>
This compound has an ester and may undergo hydrolysis at high or low pH.

> <MW>
561.21

> <cLogP>
4.63

> <TPSA>
101.74

> <Rotatable Bonds>
11

> <Fraction sp3>
0.23

> <HBA>
6

> <HBD>
1

> <Structure ID>


> <Submission Fragments>


$$$$
ligprep_COVID_compounds-withfrags-smallmolecules-forvalidation.maegz:24
                    3D
 Structure written by MMmdl.
 63 67  0  0  1  0            999 V2000
    7.9354   -0.5636   18.5962 N   0  0  0  0  0  0
    6.7631    0.1186   18.8712 C   0  0  0  0  0  0
    6.2242    0.9743   17.8982 C   0  0  0  0  0  0
    5.0327    1.6476   18.1704 C   0  0  0  0  0  0
    4.3766    1.4416   19.3892 C   0  0  0  0  0  0
    3.1938    1.9407   19.8843 N   0  0  0  0  0  0
    3.0064    1.5439   21.1925 C   0  0  0  0  0  0
    1.7792    1.9943   21.8840 C   0  0  0  0  0  0
    0.7382    1.4348   21.5290 O   0  0  0  0  0  0
    1.8806    2.9177   22.8953 N   0  0  0  0  0  0
    0.8180    3.2139   23.6985 C   0  0  0  0  0  0
    0.9462    3.3656   24.9138 O   0  0  0  0  0  0
   -0.5328    3.4137   23.1131 C   0  0  0  0  0  0
   -0.9320    3.9634   21.9218 C   0  0  0  0  0  0
   -2.3537    3.9534   21.9226 C   0  0  0  0  0  0
   -2.7231    3.4263   23.1268 C   0  0  0  0  0  0
   -1.6278    3.1095   23.8691 O   0  0  0  0  0  0
    3.1477    3.7092   23.0379 C   0  0  2  0  0  0
    4.2239    3.0144   23.8962 C   0  0  0  0  0  0
    3.9292    2.0330   24.5703 O   0  0  0  0  0  0
    5.4791    3.4581   23.7707 N   0  0  0  0  0  0
    6.6770    2.6312   23.8497 C   0  0  0  0  0  0
    7.7805    3.2749   24.6995 C   0  0  0  0  0  0
    9.1209    2.5902   24.4854 C   0  0  0  0  0  0
    9.3340    1.2830   24.9720 C   0  0  0  0  0  0
   10.5661    0.6365   24.7520 C   0  0  0  0  0  0
   11.5920    1.2965   24.0485 C   0  0  0  0  0  0
   11.3850    2.6008   23.5603 C   0  0  0  0  0  0
   12.3702    3.2299   22.8777 F   0  0  0  0  0  0
   10.1494    3.2442   23.7708 C   0  0  0  0  0  0
    2.9831    5.1348   23.5173 C   0  0  0  0  0  0
    2.7904    6.1668   22.5704 C   0  0  0  0  0  0
    2.6397    7.5000   22.9913 C   0  0  0  0  0  0
    2.6919    7.7737   24.3678 C   0  0  0  0  0  0
    2.8771    6.8185   25.2978 N   0  0  0  0  0  0
    3.0183    5.5444   24.8767 C   0  0  0  0  0  0
    4.0574    0.7351   21.5572 C   0  0  0  0  0  0
    4.9285    0.6363   20.4201 C   0  0  0  0  0  0
    6.1379   -0.0355   20.1270 C   0  0  0  0  0  0
    8.2064   -1.2624   19.2758 H   0  0  0  0  0  0
    8.1378   -0.8704   17.6570 H   0  0  0  0  0  0
    6.7235    1.1524   16.9603 H   0  0  0  0  0  0
    4.6340    2.3461   17.4532 H   0  0  0  0  0  0
    2.5984    2.6018   19.4060 H   0  0  0  0  0  0
   -0.2776    4.3256   21.1422 H   0  0  0  0  0  0
   -3.0211    4.2984   21.1468 H   0  0  0  0  0  0
   -3.6739    3.2248   23.5976 H   0  0  0  0  0  0
    3.5758    3.8071   22.0410 H   0  0  0  0  0  0
    5.5747    4.2317   23.1113 H   0  0  0  0  0  0
    6.4630    1.6118   24.1705 H   0  0  0  0  0  0
    7.0368    2.5410   22.8228 H   0  0  0  0  0  0
    7.8755    4.3322   24.4470 H   0  0  0  0  0  0
    7.5153    3.2296   25.7566 H   0  0  0  0  0  0
    8.5475    0.7727   25.5104 H   0  0  0  0  0  0
   10.7230   -0.3653   25.1228 H   0  0  0  0  0  0
   12.5388    0.8046   23.8806 H   0  0  0  0  0  0
    9.9948    4.2384   23.3774 H   0  0  0  0  0  0
    2.7597    5.9355   21.5150 H   0  0  0  0  0  0
    2.4948    8.2943   22.2735 H   0  0  0  0  0  0
    2.5840    8.7853   24.7306 H   0  0  0  0  0  0
    3.1571    4.8209   25.6659 H   0  0  0  0  0  0
    4.2052    0.2463   22.5093 H   0  0  0  0  0  0
    6.5837   -0.6696   20.8795 H   0  0  0  0  0  0
  1  2  1  0  0  0
  1 40  1  0  0  0
  1 41  1  0  0  0
  2  3  2  0  0  0
  2 39  1  0  0  0
  3  4  1  0  0  0
  3 42  1  0  0  0
  4  5  2  0  0  0
  4 43  1  0  0  0
  5  6  1  0  0  0
  5 38  1  0  0  0
  6  7  1  0  0  0
  6 44  1  0  0  0
  7  8  1  0  0  0
  7 37  2  0  0  0
  8  9  2  0  0  0
  8 10  1  0  0  0
 10 11  1  0  0  0
 10 18  1  0  0  0
 11 12  2  0  0  0
 11 13  1  0  0  0
 13 14  2  0  0  0
 13 17  1  0  0  0
 14 15  1  0  0  0
 14 45  1  0  0  0
 15 16  2  0  0  0
 15 46  1  0  0  0
 16 17  1  0  0  0
 16 47  1  0  0  0
 18 19  1  0  0  0
 18 31  1  0  0  0
 18 48  1  0  0  0
 19 20  2  0  0  0
 19 21  1  0  0  0
 21 22  1  0  0  0
 21 49  1  0  0  0
 22 23  1  0  0  0
 22 50  1  0  0  0
 22 51  1  0  0  0
 23 24  1  0  0  0
 23 52  1  0  0  0
 23 53  1  0  0  0
 24 25  2  0  0  0
 24 30  1  0  0  0
 25 26  1  0  0  0
 25 54  1  0  0  0
 26 27  2  0  0  0
 26 55  1  0  0  0
 27 28  1  0  0  0
 27 56  1  0  0  0
 28 29  1  0  0  0
 28 30  2  0  0  0
 30 57  1  0  0  0
 31 32  2  0  0  0
 31 36  1  0  0  0
 32 33  1  0  0  0
 32 58  1  0  0  0
 33 34  2  0  0  0
 33 59  1  0  0  0
 34 35  1  0  0  0
 34 60  1  0  0  0
 35 36  2  0  0  0
 36 61  1  0  0  0
 37 38  1  0  0  0
 37 62  1  0  0  0
 38 39  2  0  0  0
 39 63  1  0  0  0
M  END
> <s_m_entry_id>
1341

> <s_m_entry_name>
Compounds-withfrags-for-validation-docking.1893

> <s_m_Source_Path>
/home/rodolpho/data/melina/maestro/glide-dock_XP_5RGK_M-PRO_VALIDATION

> <s_m_Source_File>
glide-dock_XP_5RGK_M-PRO_VALIDATION_pv.maegz

> <i_m_Source_File_Index>
1341

> <CID>
ALP-POS-02c6a514-10

> <Potency>
99.5

> <pIC50>
4.00218

> <Source>
Postera

> <smiles>
Nc1ccc2[nH]c(C(=O)N(C(=O)c3ccco3)C(C(=O)NCCc3cccc(F)c3)c3cccnc3)cc2c1

> <Outcome>
Inactive

> <StandardizerResult>
Clear Stereo (ID: ClearStereo)
Wedge Clean (ID: WedgeClean)
Mesomerize (ID: Mesomerize)
Tautomerize (ID: Tautomerize)
Aromatize (ID: Aromatize)
Add Explicit Hydrogens (ID: AddExplicitH)
Neutralize (ID: Neutralize)
Clean 2D (ID: Clean2D)

> <chiral flag>
0

> <version>
0

> <i_lp_mmshare_version>
41011

> <i_f3d_flags>
0

> <s_epik_input>
W2NIXTFbY0hdYyhbTkgyXSlbY0hdYyhjMTIpW2NIXWMoW25IXTIpQyg9TylOKEMoPU8pYzNbY0hdW2NIXVtjSF1vMylbQ0BASF0oYzRbY0hdW2NIXVtjSF1uW2NIXTQpQyg9TylbTkhdW0NIMl1bQ0gyXWM1W2NIXVtjSF1bY0hdYyhGKVtjSF01

> <s_epik_cmdline>
J2VwaWtfcHl0aG9uJywgJy1waHQnLCAnMC41JywgJy1waCcsICc3LjQnLCAnLXRuJywgJzgnLCAnLW1hJywgJzIwMCcsICctaW1hZScsICc8aW5maWxlLm1hZT4nLCAnLW9tYWUnLCAnPG91dGZpbGUubWFlPic=

> <r_lp_tautomer_probability>
1.0

> <r_epik_Ionization_Penalty>
7.0E-4

> <r_epik_Ionization_Penalty_Charging>
0.0

> <r_epik_Ionization_Penalty_Neutral>
7.0E-4

> <r_epik_State_Penalty>
0.0

> <r_epik_Charging_Adjusted_Penalty>
0.0

> <i_epik_Tot_Q>
0

> <i_epik_Tot_abs_Q>
0

> <s_lp_Force_Field>
OPLS3

> <r_lp_Energy>
65.0703

> <b_lp_Chiralities_Consistent>
1

> <s_lp_Variant>
ligprep_COVID_compounds-withfrags-smallmolecules-forvalidation.maegz:24-2

> <i_glide_original_lignum>
142

> <s_i_glide_gridfile>
glide-grid_5RGK_M-PRO_COVID

> <i_i_glide_lignum>
142

> <r_i_docking_score>
-4.33142927600407

> <r_i_glide_ligand_efficiency>
-0.11106228912831

> <r_i_glide_ligand_efficiency_sa>
-0.376635705319329

> <r_i_glide_ligand_efficiency_ln>
-0.928781391707084

> <r_glide_XP_GScore>
-4.33142927600407

> <r_i_glide_gscore>
-4.33142927600407

> <r_i_glide_evdw>
-25.5581150054932

> <r_i_glide_ecoul>
-14.6806545257568

> <r_i_glide_energy>
-40.23876953125

> <r_i_glide_einternal>
8.56578826904297

> <r_i_glide_emodel>
-51.8430207079427

> <r_glide_XP_HBond>
-1.18858840177206

> <i_i_glide_confnum>
1

> <i_i_glide_posenum>
9

> <r_i_glide_eff_state_penalty>
0.0

> <i_glide_XP_PoseRank>
1

> <MW>
525.18

> <cLogP>
4.26

> <TPSA>
134.32

> <Rotatable Bonds>
8

> <Fraction sp3>
0.1

> <HBA>
6

> <HBD>
3

> <s_epik_Chemistry_Notes>


> <Structure ID>


> <Submission Fragments>


$$$$
ligprep_COVID_compounds-withfrags-smallmolecules-forvalidation.maegz:6
                    3D
 Structure written by MMmdl.
 57 60  0  0  1  0            999 V2000
    2.4633    9.0922   20.8555 C   0  0  0  0  0  0
    2.7286    7.6185   20.4615 C   0  0  1  0  0  0
    2.1239    6.6951   21.5342 C   0  0  0  0  0  0
    2.5283    6.8700   22.8802 C   0  0  0  0  0  0
    1.9895    6.0848   23.9122 C   0  0  0  0  0  0
    1.0372    5.0998   23.6116 C   0  0  0  0  0  0
    0.6411    4.8828   22.2800 C   0  0  0  0  0  0
   -0.2699    3.8888   22.0495 O   0  0  0  0  0  0
    1.1916    5.6688   21.2273 C   0  0  0  0  0  0
    0.8522    5.3844   19.8095 C   0  0  0  0  0  0
   -0.1573    4.7488   19.4933 O   0  0  0  0  0  0
    1.7772    5.9188   18.7904 C   0  0  0  0  0  0
    2.2183    7.3570   18.9865 C   0  0  2  0  0  0
    3.1976    7.8041   17.8494 C   0  0  1  0  0  0
    2.9434    7.1884   16.4424 C   0  0  2  0  0  0
    1.6739    7.7809   15.7180 C   0  0  1  0  0  0
    1.9972    8.6787   14.5627 N   0  3  0  0  0  0
    2.7324    8.0515   13.4317 C   0  0  0  0  0  0
    2.5595    9.9981   14.9271 C   0  0  0  0  0  0
    0.6280    6.7661   15.1972 C   0  0  0  0  0  0
   -0.4480    7.3961   15.0407 O   0  5  0  0  0  0
    1.0095    5.4462   14.9314 C   0  0  0  0  0  0
    0.1037    4.4430   14.3442 C   0  0  0  0  0  0
   -1.0931    4.9083   13.9959 N   0  0  0  0  0  0
    0.3665    3.2545   14.1705 O   0  0  0  0  0  0
    2.3880    5.0398   15.2478 C   0  0  0  0  0  0
    3.0411    4.2451   14.5694 O   0  0  0  0  0  0
    2.9839    5.6346   16.5388 C   0  0  2  0  0  0
    2.1979    5.1450   17.7679 C   0  0  0  0  0  0
    1.9194    3.8362   17.7122 O   0  0  0  0  0  0
    4.3320    5.2109   16.6545 O   0  0  0  0  0  0
    3.2243    9.2135   17.7716 O   0  0  0  0  0  0
    4.1306    7.4440   20.4980 O   0  0  0  0  0  0
    1.3930    9.2990   20.8885 H   0  0  0  0  0  0
    2.9113    9.8031   20.1668 H   0  0  0  0  0  0
    2.8700    9.3436   21.8347 H   0  0  0  0  0  0
    3.2695    7.6122   23.1345 H   0  0  0  0  0  0
    2.3090    6.2367   24.9326 H   0  0  0  0  0  0
    0.6210    4.4952   24.4041 H   0  0  0  0  0  0
   -0.5104    3.8511   21.1309 H   0  0  0  0  0  0
    1.2872    7.9124   18.8577 H   0  0  0  0  0  0
    4.2119    7.4957   18.0996 H   0  0  0  0  0  0
    3.8144    7.4725   15.8519 H   0  0  0  0  0  0
    1.1618    8.4061   16.4535 H   0  0  0  0  0  0
    3.7634    7.8096   13.6918 H   0  0  0  0  0  0
    2.7646    8.7354   12.5828 H   0  0  0  0  0  0
    2.2493    7.1395   13.0788 H   0  0  0  0  0  0
    3.5941    9.9044   15.2572 H   0  0  0  0  0  0
    1.9785   10.4735   15.7173 H   0  0  0  0  0  0
    2.5463   10.6676   14.0668 H   0  0  0  0  0  0
   -1.2774    5.8894   14.1964 H   0  0  0  0  0  0
   -1.7792    4.3040   13.5732 H   0  0  0  0  0  0
    2.3789    3.4579   16.9705 H   0  0  0  0  0  0
    4.5036    5.0362   17.5818 H   0  0  0  0  0  0
    3.6270    9.5408   18.5633 H   0  0  0  0  0  0
    4.3211    6.5124   20.4425 H   0  0  0  0  0  0
    1.0689    8.8646   14.2021 H   0  0  0  0  0  0
  1  2  1  0  0  0
  1 34  1  0  0  0
  1 35  1  0  0  0
  1 36  1  0  0  0
  2  3  1  0  0  0
  2 33  1  0  0  0
  2 13  1  0  0  0
  3  4  2  0  0  0
  3  9  1  0  0  0
  4  5  1  0  0  0
  4 37  1  0  0  0
  5  6  2  0  0  0
  5 38  1  0  0  0
  6  7  1  0  0  0
  6 39  1  0  0  0
  7  8  1  0  0  0
  7  9  2  0  0  0
  8 40  1  0  0  0
  9 10  1  0  0  0
 10 11  2  0  0  0
 10 12  1  0  0  0
 12 13  1  0  0  0
 12 29  2  0  0  0
 13 14  1  0  0  0
 13 41  1  0  0  0
 14 15  1  0  0  0
 14 32  1  0  0  0
 14 42  1  0  0  0
 15 16  1  0  0  0
 15 28  1  0  0  0
 15 43  1  0  0  0
 16 17  1  0  0  0
 16 20  1  0  0  0
 16 44  1  0  0  0
 17 18  1  0  0  0
 17 19  1  0  0  0
 17 57  1  0  0  0
 18 45  1  0  0  0
 18 46  1  0  0  0
 18 47  1  0  0  0
 19 48  1  0  0  0
 19 49  1  0  0  0
 19 50  1  0  0  0
 20 21  1  0  0  0
 20 22  2  0  0  0
 22 23  1  0  0  0
 22 26  1  0  0  0
 23 24  1  0  0  0
 23 25  2  0  0  0
 24 51  1  0  0  0
 24 52  1  0  0  0
 26 27  2  0  0  0
 26 28  1  0  0  0
 28 29  1  0  0  0
 28 31  1  0  0  0
 29 30  1  0  0  0
 30 53  1  0  0  0
 31 54  1  0  0  0
 32 55  1  0  0  0
 33 56  1  0  0  0
M  CHG  2  17   1  21  -1
M  END
> <s_m_entry_id>
1357

> <s_m_entry_name>
Compounds-withfrags-for-validation-docking.1911

> <s_m_Source_Path>
/home/rodolpho/data/melina/maestro/glide-dock_XP_5RGK_M-PRO_VALIDATION

> <s_m_Source_File>
glide-dock_XP_5RGK_M-PRO_VALIDATION_pv.maegz

> <i_m_Source_File_Index>
1357

> <CID>
Oxitetracyclin

> <Potency>
15.15

> <pIC50>
4.81959

> <Source>
https://doi.org/10.1101/2020.03.23.004580

> <smiles>
C(C1(C2=C(C(=C(C(O[H])=C2C(O[H])=C2C1(C(C1(C(N(C([H])([H])[H])C([H])([H])[H])([H])C(=O)C(=C(N([H])[H])O[H])C(=O)C1(C2=O)O[H])[H])(O[H])[H])[H])[H])[H])[H])O[H])([H])([H])[H]

> <Outcome>
Inactive

> <StandardizerResult>
Clear Stereo (ID: ClearStereo)
Wedge Clean (ID: WedgeClean)
Mesomerize (ID: Mesomerize)
Tautomerize (ID: Tautomerize)
Aromatize (ID: Aromatize)
Add Explicit Hydrogens (ID: AddExplicitH)
Neutralize (ID: Neutralize)
Clean 2D (ID: Clean2D)

> <chiral flag>
0

> <version>
0

> <i_lp_mmshare_version>
41011

> <i_f3d_flags>
0

> <s_epik_input>
W09IXWMxW2NIXVtjSF1bY0hdYyhbQ0BAXTIoW0NIM10pW09IXSljMUMoPU8pQyg9QzNbT0hdKVtDQEBIXTJbQ0BIXShbT0hdKVtDQEBIXShbQ0BAXTM0W09IXSlbQ0BASF0oTihbQ0gzXSlbQ0gzXSlDKD1PKVtDQEhdKEM0PU8pQyg9TylbTkgyXQ==

> <s_epik_cmdline>
J2VwaWtfcHl0aG9uJywgJy1waHQnLCAnMC41JywgJy1waCcsICc3LjQnLCAnLXRuJywgJzgnLCAnLW1hJywgJzIwMCcsICctaW1hZScsICc8aW5maWxlLm1hZT4nLCAnLW9tYWUnLCAnPG91dGZpbGUubWFlPic=

> <r_epik_Ionization_Penalty>
0.6144

> <r_epik_Ionization_Penalty_Charging>
0.5087

> <r_epik_Ionization_Penalty_Neutral>
0.1057

> <r_epik_State_Penalty>
0.5157

> <r_epik_Charging_Adjusted_Penalty>
1.02439

> <i_epik_Tot_Q>
0

> <i_epik_Tot_abs_Q>
2

> <s_lp_Force_Field>
OPLS3

> <r_lp_Energy>
53.7599

> <b_lp_Chiralities_Consistent>
1

> <s_lp_Variant>
ligprep_COVID_compounds-withfrags-smallmolecules-forvalidation.maegz:6-37

> <i_glide_original_lignum>
89

> <s_i_glide_gridfile>
glide-grid_5RGK_M-PRO_COVID

> <i_i_glide_lignum>
89

> <r_i_docking_score>
-4.32278295622359

> <r_i_glide_ligand_efficiency>
-0.130993422915866

> <r_i_glide_ligand_efficiency_sa>
-0.420165900516599

> <r_i_glide_ligand_efficiency_ln>
-0.961364547291846

> <r_glide_XP_GScore>
-4.83848995622359

> <r_i_glide_gscore>
-4.83848995622359

> <r_i_glide_evdw>
-18.5222721099854

> <r_i_glide_ecoul>
-16.5747356414795

> <r_i_glide_energy>
-35.0970077514648

> <r_i_glide_einternal>
2.89537572860718

> <r_i_glide_emodel>
-38.1620420775666

> <r_glide_XP_HBond>
-2.08463912217349

> <i_i_glide_confnum>
1

> <i_i_glide_posenum>
56

> <r_i_glide_eff_state_penalty>
0.515707

> <i_glide_XP_PoseRank>
1

> <r_lp_tautomer_probability>


> <s_epik_Chemistry_Notes>


> <MW>


> <cLogP>


> <TPSA>


> <Rotatable Bonds>


> <Fraction sp3>


> <HBA>


> <HBD>


> <Structure ID>


> <Submission Fragments>


$$$$
ligprep_COVID_compounds-withfrags-smallmolecules-forvalidation.maegz:13
                    3D
 Structure written by MMmdl.
 73 76  0  0  1  0            999 V2000
   -0.1345    0.0163   26.7383 C   0  0  0  0  0  0
    1.0221    1.0129   27.0023 C   0  0  0  0  0  0
    0.3808    2.3585   27.4370 C   0  0  0  0  0  0
    1.8783    0.5032   28.1878 C   0  0  0  0  0  0
    1.9094    1.1352   25.7370 C   0  0  0  0  0  0
    2.7707    0.1053   25.3244 C   0  0  0  0  0  0
    3.5494    0.2438   24.1798 C   0  0  0  0  0  0
    3.4819    1.4212   23.4310 C   0  0  0  0  0  0
    4.2490    1.5585   22.2520 N   0  0  0  0  0  0
    3.5914    1.4493   21.0459 C   0  0  0  0  0  0
    2.4034    1.7553   20.8984 O   0  0  0  0  0  0
    4.3558    0.9076   19.7950 C   0  0  2  0  0  0
    5.8874    0.9349   19.8962 C   0  0  0  0  0  0
    6.3282    1.0228   18.4476 C   0  0  0  0  0  0
    5.3048    1.9518   17.7958 C   0  0  0  0  0  0
    4.0806    1.8192   18.6227 N   0  3  0  0  0  0
    5.7529    1.4711   22.3677 C   0  0  1  0  0  0
    6.4439    2.3873   23.4127 C   0  0  0  0  0  0
    5.7574    3.0651   24.1797 O   0  0  0  0  0  0
    7.7861    2.3419   23.4398 N   0  0  0  0  0  0
    8.6144    3.0452   24.4152 C   0  0  0  0  0  0
    9.4245    4.2051   23.8028 C   0  0  0  0  0  0
   10.8192    3.7779   23.3726 C   0  0  0  0  0  0
   11.7556    4.7349   22.9668 C   0  0  0  0  0  0
   13.0336    4.3418   22.5675 C   0  0  0  0  0  0
   13.3810    2.9907   22.5694 C   0  0  0  0  0  0
   12.4505    2.0318   22.9708 C   0  0  0  0  0  0
   12.7866    0.7220   22.9708 F   0  0  0  0  0  0
   11.1726    2.4243   23.3719 C   0  0  0  0  0  0
    6.2548    0.0494   22.5614 C   0  0  0  0  0  0
    6.2701   -0.8444   21.4829 C   0  0  0  0  0  0
    6.7312   -2.1491   21.6660 C   0  0  0  0  0  0
    7.1746   -2.5265   22.9340 C   0  0  0  0  0  0
    7.1814   -1.6808   23.9950 N   0  0  0  0  0  0
    6.7307   -0.4160   23.7974 C   0  0  0  0  0  0
    2.6247    2.4524   23.8217 C   0  0  0  0  0  0
    1.8492    2.3070   24.9672 C   0  0  0  0  0  0
   -0.7939   -0.0722   27.6032 H   0  0  0  0  0  0
    0.2264   -0.9885   26.5165 H   0  0  0  0  0  0
   -0.7492    0.3341   25.8948 H   0  0  0  0  0  0
   -0.2577    2.7745   26.6561 H   0  0  0  0  0  0
    1.1353    3.1063   27.6857 H   0  0  0  0  0  0
   -0.2439    2.2368   28.3235 H   0  0  0  0  0  0
    1.2906    0.4250   29.1037 H   0  0  0  0  0  0
    2.7116    1.1766   28.3950 H   0  0  0  0  0  0
    2.2998   -0.4846   27.9980 H   0  0  0  0  0  0
    2.8511   -0.8200   25.8731 H   0  0  0  0  0  0
    4.1988   -0.5643   23.8746 H   0  0  0  0  0  0
    3.9826   -0.0636   19.4664 H   0  0  0  0  0  0
    6.2291    1.8227   20.4328 H   0  0  0  0  0  0
    6.3069    0.0620   20.3962 H   0  0  0  0  0  0
    7.3559    1.3682   18.3303 H   0  0  0  0  0  0
    6.2608    0.0322   17.9942 H   0  0  0  0  0  0
    5.5750    3.0052   17.8808 H   0  0  0  0  0  0
    5.0524    1.7020   16.7647 H   0  0  0  0  0  0
    3.3008    1.4946   18.0686 H   0  0  0  0  0  0
    6.1074    1.8056   21.3905 H   0  0  0  0  0  0
    8.2706    1.7739   22.7599 H   0  0  0  0  0  0
    7.9503    3.4356   25.1873 H   0  0  0  0  0  0
    9.2794    2.3420   24.9217 H   0  0  0  0  0  0
    8.8996    4.6228   22.9418 H   0  0  0  0  0  0
    9.5083    5.0243   24.5193 H   0  0  0  0  0  0
   11.4945    5.7833   22.9596 H   0  0  0  0  0  0
   13.7537    5.0841   22.2559 H   0  0  0  0  0  0
   14.3699    2.6872   22.2590 H   0  0  0  0  0  0
   10.4575    1.6751   23.6801 H   0  0  0  0  0  0
    5.9225   -0.5340   20.5083 H   0  0  0  0  0  0
    6.7447   -2.8499   20.8444 H   0  0  0  0  0  0
    7.5381   -3.5276   23.1140 H   0  0  0  0  0  0
    6.7507    0.2332   24.6605 H   0  0  0  0  0  0
    2.5569    3.3609   23.2407 H   0  0  0  0  0  0
    1.1931    3.1167   25.2505 H   0  0  0  0  0  0
    3.8270    2.7391   18.9557 H   0  0  0  0  0  0
  1  2  1  0  0  0
  1 38  1  0  0  0
  1 39  1  0  0  0
  1 40  1  0  0  0
  2  3  1  0  0  0
  2  4  1  0  0  0
  2  5  1  0  0  0
  3 41  1  0  0  0
  3 42  1  0  0  0
  3 43  1  0  0  0
  4 44  1  0  0  0
  4 45  1  0  0  0
  4 46  1  0  0  0
  5  6  2  0  0  0
  5 37  1  0  0  0
  6  7  1  0  0  0
  6 47  1  0  0  0
  7  8  2  0  0  0
  7 48  1  0  0  0
  8  9  1  0  0  0
  8 36  1  0  0  0
  9 10  1  0  0  0
  9 17  1  0  0  0
 10 11  2  0  0  0
 10 12  1  0  0  0
 12 13  1  0  0  0
 12 16  1  0  0  0
 12 49  1  0  0  0
 13 14  1  0  0  0
 13 50  1  0  0  0
 13 51  1  0  0  0
 14 15  1  0  0  0
 14 52  1  0  0  0
 14 53  1  0  0  0
 15 16  1  0  0  0
 15 54  1  0  0  0
 15 55  1  0  0  0
 16 56  1  0  0  0
 16 73  1  0  0  0
 17 18  1  0  0  0
 17 30  1  0  0  0
 17 57  1  0  0  0
 18 19  2  0  0  0
 18 20  1  0  0  0
 20 21  1  0  0  0
 20 58  1  0  0  0
 21 22  1  0  0  0
 21 59  1  0  0  0
 21 60  1  0  0  0
 22 23  1  0  0  0
 22 61  1  0  0  0
 22 62  1  0  0  0
 23 24  2  0  0  0
 23 29  1  0  0  0
 24 25  1  0  0  0
 24 63  1  0  0  0
 25 26  2  0  0  0
 25 64  1  0  0  0
 26 27  1  0  0  0
 26 65  1  0  0  0
 27 28  1  0  0  0
 27 29  2  0  0  0
 29 66  1  0  0  0
 30 31  2  0  0  0
 30 35  1  0  0  0
 31 32  1  0  0  0
 31 67  1  0  0  0
 32 33  2  0  0  0
 32 68  1  0  0  0
 33 34  1  0  0  0
 33 69  1  0  0  0
 34 35  2  0  0  0
 35 70  1  0  0  0
 36 37  2  0  0  0
 36 71  1  0  0  0
 37 72  1  0  0  0
M  CHG  1  16   1
M  END
> <s_m_entry_id>
1380

> <s_m_entry_name>
Compounds-withfrags-for-validation-docking.1904

> <s_m_Source_Path>
/home/rodolpho/data/melina/maestro/glide-dock_XP_5RGK_M-PRO_VALIDATION

> <s_m_Source_File>
glide-dock_XP_5RGK_M-PRO_VALIDATION_pv.maegz

> <i_m_Source_File_Index>
1380

> <CID>
ALP-POS-02c6a514-51

> <Potency>
99.5

> <pIC50>
4.00218

> <Source>
Postera

> <smiles>
CC(C)(C)c1ccc(N(C(=O)C2CCCN2)C(C(=O)NCCc2cccc(F)c2)c2cccnc2)cc1

> <Outcome>
Inactive

> <StandardizerResult>
Clear Stereo (ID: ClearStereo)
Wedge Clean (ID: WedgeClean)
Mesomerize (ID: Mesomerize)
Tautomerize (ID: Tautomerize)
Aromatize (ID: Aromatize)
Add Explicit Hydrogens (ID: AddExplicitH)
Neutralize (ID: Neutralize)
Clean 2D (ID: Clean2D)

> <chiral flag>
0

> <version>
0

> <i_lp_mmshare_version>
41011

> <i_f3d_flags>
0

> <s_epik_input>
W0NIM11DKFtDSDNdKShbQ0gzXSljMVtjSF1bY0hdYyhbY0hdW2NIXTEpTihDKD1PKVtDQEBIXTJbQ0gyXVtDSDJdW0NIMl1bTkhdMilbQ0BIXShjM1tjSF1bY0hdW2NIXW5bY0hdMylDKD1PKVtOSF1bQ0gyXVtDSDJdYzRbY0hdW2NIXVtjSF1jKEYpW2NIXTQ=

> <s_epik_cmdline>
J2VwaWtfcHl0aG9uJywgJy1waHQnLCAnMC41JywgJy1waCcsICc3LjQnLCAnLXRuJywgJzgnLCAnLW1hJywgJzIwMCcsICctaW1hZScsICc8aW5maWxlLm1hZT4nLCAnLW9tYWUnLCAnPG91dGZpbGUubWFlPic=

> <r_epik_Ionization_Penalty>
0.1422

> <r_epik_Ionization_Penalty_Charging>
0.1417

> <r_epik_Ionization_Penalty_Neutral>
4.0E-4

> <r_epik_State_Penalty>
0.131

> <r_epik_Charging_Adjusted_Penalty>
0.272745

> <i_epik_Tot_Q>
1

> <i_epik_Tot_abs_Q>
1

> <s_lp_Force_Field>
OPLS3

> <r_lp_Energy>
78.4812

> <b_lp_Chiralities_Consistent>
1

> <s_lp_Variant>
ligprep_COVID_compounds-withfrags-smallmolecules-forvalidation.maegz:13-2

> <i_glide_original_lignum>
118

> <s_i_glide_gridfile>
glide-grid_5RGK_M-PRO_COVID

> <i_i_glide_lignum>
118

> <r_i_docking_score>
-4.30950052362977

> <r_i_glide_ligand_efficiency>
-0.116472987125129

> <r_i_glide_ligand_efficiency_sa>
-0.388113832357684

> <r_i_glide_ligand_efficiency_ln>
-0.934629634548927

> <r_glide_XP_GScore>
-4.44052952362977

> <r_i_glide_gscore>
-4.44052952362977

> <r_i_glide_evdw>
-28.4522571563721

> <r_i_glide_ecoul>
-11.5430355072021

> <r_i_glide_energy>
-39.9952926635742

> <r_i_glide_einternal>
13.7022314071655

> <r_i_glide_emodel>
-52.8606615204251

> <r_glide_XP_HBond>
-0.965373204488211

> <i_i_glide_confnum>
3

> <i_i_glide_posenum>
1

> <r_i_glide_eff_state_penalty>
0.131029

> <i_glide_XP_PoseRank>
1

> <MW>
502.27

> <cLogP>
4.7

> <TPSA>
74.33

> <Rotatable Bonds>
8

> <Fraction sp3>
0.37

> <HBA>
4

> <HBD>
2

> <r_lp_tautomer_probability>


> <s_epik_Chemistry_Notes>


> <Structure ID>


> <Submission Fragments>


$$$$
ligprep_COVID_compounds-withfrags-smallmolecules-forvalidation.maegz:4
                    3D
 Structure written by MMmdl.
 93 97  0  0  1  0            999 V2000
    5.2432    7.4767   22.6938 C   0  0  0  0  0  0
    4.8254    8.2944   21.4639 C   0  0  0  0  0  0
    4.0752    9.5501   21.9554 C   0  0  0  0  0  0
    6.0828    8.6673   20.6733 C   0  0  0  0  0  0
    3.9765    7.4477   20.6264 N   0  0  0  0  0  0
    3.2861    7.7987   19.5257 C   0  0  0  0  0  0
    3.3213    8.9337   19.0531 O   0  0  0  0  0  0
    2.3993    6.7482   18.8254 C   0  0  1  0  0  0
    3.0104    6.4874   17.4172 C   0  0  0  0  0  0
    2.2147    5.5649   16.6036 N   0  0  0  0  0  0
    0.9463    6.1628   16.1708 C   0  0  0  0  0  0
    0.0457    5.2772   15.3273 C   0  0  0  0  0  0
   -1.3531    5.4586   15.3647 C   0  0  0  0  0  0
   -2.1726    4.6230   14.5853 C   0  0  0  0  0  0
   -1.5580    3.6220   13.8098 C   0  0  0  0  0  0
   -0.2240    3.4367   13.7709 N   0  0  0  0  0  0
    0.5574    4.2645   14.4879 C   0  0  0  0  0  0
    2.1044    4.3118   17.3509 C   0  0  0  0  0  0
    1.4203    4.5132   18.7073 C   0  0  0  0  0  0
    2.1832    5.4583   19.5606 N   0  3  2  0  0  0
    1.5462    5.5874   20.9069 C   0  0  0  0  0  0
    2.3943    4.9447   22.0227 C   0  0  2  0  0  0
    2.2694    3.4085   22.1152 C   0  0  0  0  0  0
    3.6052    2.6882   22.3951 C   0  0  2  0  0  0
    3.5016    1.1727   22.1527 C   0  0  0  0  0  0
    4.4872    0.6681   21.1081 C   0  0  0  0  0  0
    5.5022   -0.2435   21.4608 C   0  0  0  0  0  0
    6.3745   -0.7459   20.4739 C   0  0  0  0  0  0
    6.2550   -0.3195   19.1377 C   0  0  0  0  0  0
    5.2623    0.6152   18.7864 C   0  0  0  0  0  0
    4.3757    1.1012   19.7678 C   0  0  0  0  0  0
    4.1470    3.0520   23.7822 C   0  0  0  0  0  0
    3.5771    2.6453   24.7936 O   0  0  0  0  0  0
    5.2242    3.8566   23.7709 N   0  0  0  0  0  0
    6.0525    4.4446   24.8207 C   0  0  1  0  0  0
    5.3984    4.7103   26.1558 C   0  0  0  0  0  0
    4.1835    5.3741   26.4003 C   0  0  0  0  0  0
    3.7649    5.5357   27.7382 C   0  0  0  0  0  0
    4.5614    5.0454   28.8006 C   0  0  0  0  0  0
    5.7839    4.3923   28.5395 C   0  0  0  0  0  0
    6.1842    4.2390   27.2020 C   0  0  0  0  0  0
    7.4504    3.5948   26.7020 C   0  0  0  0  0  0
    7.3041    3.5872   25.1579 C   0  0  2  0  0  0
    8.4615    4.1535   24.5708 O   0  0  0  0  0  0
    1.9833    5.4905   23.2585 O   0  0  0  0  0  0
    5.8264    8.0784   23.3925 H   0  0  0  0  0  0
    5.8683    6.6374   22.4063 H   0  0  0  0  0  0
    4.3813    7.0860   23.2361 H   0  0  0  0  0  0
    3.1292    9.2850   22.4336 H   0  0  0  0  0  0
    3.8488   10.2439   21.1467 H   0  0  0  0  0  0
    4.6749   10.1042   22.6796 H   0  0  0  0  0  0
    6.7750    9.1706   21.3381 H   0  0  0  0  0  0
    5.8687    9.3414   19.8448 H   0  0  0  0  0  0
    6.5837    7.7906   20.2667 H   0  0  0  0  0  0
    3.9791    6.4744   20.8908 H   0  0  0  0  0  0
    1.4255    7.2247   18.7137 H   0  0  0  0  0  0
    3.1283    7.4268   16.8715 H   0  0  0  0  0  0
    4.0177    6.0817   17.5192 H   0  0  0  0  0  0
    0.3582    6.5053   17.0205 H   0  0  0  0  0  0
    1.1715    7.0552   15.5814 H   0  0  0  0  0  0
   -1.7965    6.2289   15.9824 H   0  0  0  0  0  0
   -3.2473    4.7384   14.5808 H   0  0  0  0  0  0
   -2.1547    2.9527   13.2041 H   0  0  0  0  0  0
    1.6191    4.0913   14.4063 H   0  0  0  0  0  0
    1.5467    3.5824   16.7719 H   0  0  0  0  0  0
    3.1006    3.8859   17.4909 H   0  0  0  0  0  0
    0.3953    4.8611   18.5729 H   0  0  0  0  0  0
    1.3397    3.5406   19.1866 H   0  0  0  0  0  0
    1.3961    6.6426   21.1376 H   0  0  0  0  0  0
    0.5389    5.1677   20.9194 H   0  0  0  0  0  0
    3.4393    5.2176   21.8865 H   0  0  0  0  0  0
    1.5130    3.1205   22.8497 H   0  0  0  0  0  0
    1.8968    3.0267   21.1696 H   0  0  0  0  0  0
    4.3147    3.0358   21.6560 H   0  0  0  0  0  0
    3.6073    0.6024   23.0761 H   0  0  0  0  0  0
    2.5011    0.9640   21.7770 H   0  0  0  0  0  0
    5.6009   -0.5874   22.4798 H   0  0  0  0  0  0
    7.1325   -1.4657   20.7387 H   0  0  0  0  0  0
    6.9226   -0.7136   18.3857 H   0  0  0  0  0  0
    5.1642    0.9511   17.7630 H   0  0  0  0  0  0
    3.6104    1.8065   19.4859 H   0  0  0  0  0  0
    5.5309    4.1271   22.8241 H   0  0  0  0  0  0
    6.3627    5.4248   24.4578 H   0  0  0  0  0  0
    3.5915    5.7550   25.5822 H   0  0  0  0  0  0
    2.8365    6.0401   27.9515 H   0  0  0  0  0  0
    4.2354    5.1792   29.8208 H   0  0  0  0  0  0
    6.4057    4.0245   29.3465 H   0  0  0  0  0  0
    8.2969    4.1990   27.0291 H   0  0  0  0  0  0
    7.5749    2.5943   27.1085 H   0  0  0  0  0  0
    7.1746    2.5616   24.8162 H   0  0  0  0  0  0
    8.3605    4.1278   23.6290 H   0  0  0  0  0  0
    2.4684    5.0631   23.9500 H   0  0  0  0  0  0
    3.1079    5.0407   19.6668 H   0  0  0  0  0  0
  1  2  1  0  0  0
  1 46  1  0  0  0
  1 47  1  0  0  0
  1 48  1  0  0  0
  2  3  1  0  0  0
  2  4  1  0  0  0
  2  5  1  0  0  0
  3 49  1  0  0  0
  3 50  1  0  0  0
  3 51  1  0  0  0
  4 52  1  0  0  0
  4 53  1  0  0  0
  4 54  1  0  0  0
  5  6  1  0  0  0
  5 55  1  0  0  0
  6  7  2  0  0  0
  6  8  1  0  0  0
  8  9  1  0  0  0
  8 20  1  0  0  0
  8 56  1  0  0  0
  9 10  1  0  0  0
  9 57  1  0  0  0
  9 58  1  0  0  0
 10 11  1  0  0  0
 10 18  1  0  0  0
 11 12  1  0  0  0
 11 59  1  0  0  0
 11 60  1  0  0  0
 12 13  2  0  0  0
 12 17  1  0  0  0
 13 14  1  0  0  0
 13 61  1  0  0  0
 14 15  2  0  0  0
 14 62  1  0  0  0
 15 16  1  0  0  0
 15 63  1  0  0  0
 16 17  2  0  0  0
 17 64  1  0  0  0
 18 19  1  0  0  0
 18 65  1  0  0  0
 18 66  1  0  0  0
 19 20  1  0  0  0
 19 67  1  0  0  0
 19 68  1  0  0  0
 20 21  1  0  0  0
 20 93  1  0  0  0
 21 22  1  0  0  0
 21 69  1  0  0  0
 21 70  1  0  0  0
 22 23  1  0  0  0
 22 45  1  0  0  0
 22 71  1  0  0  0
 23 24  1  0  0  0
 23 72  1  0  0  0
 23 73  1  0  0  0
 24 25  1  0  0  0
 24 32  1  0  0  0
 24 74  1  0  0  0
 25 26  1  0  0  0
 25 75  1  0  0  0
 25 76  1  0  0  0
 26 27  2  0  0  0
 26 31  1  0  0  0
 27 28  1  0  0  0
 27 77  1  0  0  0
 28 29  2  0  0  0
 28 78  1  0  0  0
 29 30  1  0  0  0
 29 79  1  0  0  0
 30 31  2  0  0  0
 30 80  1  0  0  0
 31 81  1  0  0  0
 32 33  2  0  0  0
 32 34  1  0  0  0
 34 35  1  0  0  0
 34 82  1  0  0  0
 35 36  1  0  0  0
 35 43  1  0  0  0
 35 83  1  0  0  0
 36 37  2  0  0  0
 36 41  1  0  0  0
 37 38  1  0  0  0
 37 84  1  0  0  0
 38 39  2  0  0  0
 38 85  1  0  0  0
 39 40  1  0  0  0
 39 86  1  0  0  0
 40 41  2  0  0  0
 40 87  1  0  0  0
 41 42  1  0  0  0
 42 43  1  0  0  0
 42 88  1  0  0  0
 42 89  1  0  0  0
 43 44  1  0  0  0
 43 90  1  0  0  0
 44 91  1  0  0  0
 45 92  1  0  0  0
M  CHG  1  20   1
M  END
> <s_m_entry_id>
1436

> <s_m_entry_name>
Compounds-withfrags-for-validation-docking.1913

> <s_m_Source_Path>
/home/rodolpho/data/melina/maestro/glide-dock_XP_5RGK_M-PRO_VALIDATION

> <s_m_Source_File>
glide-dock_XP_5RGK_M-PRO_VALIDATION_pv.maegz

> <i_m_Source_File_Index>
1436

> <CID>
Indinavir

> <Potency>
43.13

> <pIC50>
4.36522

> <Source>
https://doi.org/10.1101/2020.03.23.004580

> <smiles>
C(C(C([H])([H])[H])(C([H])([H])[H])N(C(=O)C1(C([H])([H])N(C(C2=C([H])C([H])=C([H])N=C2[H])([H])[H])C([H])([H])C([H])([H])N1C(C(C(C(C(C1=C([H])C([H])=C([H])C([H])=C1[H])([H])[H])(C(=O)N(C1(C2=C(C(=C(C([H])=C2C([H])([H])C1(O[H])[H])[H])[H])[H])[H])[H])[H])([H])[H])(O[H])[H])([H])[H])[H])[H])([H])([H])[H]

> <Outcome>
Inactive

> <StandardizerResult>
Clear Stereo (ID: ClearStereo)
Wedge Clean (ID: WedgeClean)
Mesomerize (ID: Mesomerize)
Tautomerize (ID: Tautomerize)
Aromatize (ID: Aromatize)
Add Explicit Hydrogens (ID: AddExplicitH)
Neutralize (ID: Neutralize)
Clean 2D (ID: Clean2D)

> <chiral flag>
0

> <version>
0

> <i_lp_mmshare_version>
41011

> <i_f3d_flags>
0

> <s_epik_input>
W2NIXTFuW2NIXVtjSF1bY0hdYzFbQ0gyXU4oW0NIMl1bQ0BASF0yQyg9TylbTkhdQyhbQ0gzXSkoW0NIM10pW0NIM10pW0NIMl1bQ0gyXU4yW0NIMl1bQ0BASF0oW09IXSlbQ0gyXVtDQEhdKFtDSDJdYzNbY0hdW2NIXVtjSF1bY0hdW2NIXTMpQyg9TylbTkhdW0NAQEhdNFtDQEBIXShbT0hdKVtDSDJdYyhjNDUpW2NIXVtjSF1bY0hdW2NIXTU=

> <s_epik_cmdline>
J2VwaWtfcHl0aG9uJywgJy1waHQnLCAnMC41JywgJy1waCcsICc3LjQnLCAnLXRuJywgJzgnLCAnLW1hJywgJzIwMCcsICctaW1hZScsICc8aW5maWxlLm1hZT4nLCAnLW9tYWUnLCAnPG91dGZpbGUubWFlPic=

> <r_epik_Ionization_Penalty>
0.3395

> <r_epik_Ionization_Penalty_Charging>
0.3352

> <r_epik_Ionization_Penalty_Neutral>
0.0044

> <r_epik_State_Penalty>
0.5191

> <r_epik_Charging_Adjusted_Penalty>
0.854238

> <i_epik_Tot_Q>
1

> <i_epik_Tot_abs_Q>
1

> <s_lp_Force_Field>
OPLS3

> <r_lp_Energy>
55.015

> <b_lp_Chiralities_Consistent>
1

> <s_lp_Variant>
ligprep_COVID_compounds-withfrags-smallmolecules-forvalidation.maegz:4-21

> <i_glide_original_lignum>
40

> <s_i_glide_gridfile>
glide-grid_5RGK_M-PRO_COVID

> <i_i_glide_lignum>
40

> <r_i_docking_score>
-4.27353627290604

> <r_i_glide_ligand_efficiency>
-0.0949674727312453

> <r_i_glide_ligand_efficiency_sa>
-0.337789167473492

> <r_i_glide_ligand_efficiency_ln>
-0.889085988875046

> <r_glide_XP_GScore>
-4.79260827290604

> <r_i_glide_gscore>
-4.79260827290604

> <r_i_glide_evdw>
-30.1864032745361

> <r_i_glide_ecoul>
-20.2316131591797

> <r_i_glide_energy>
-50.4180164337158

> <r_i_glide_einternal>
0.0

> <r_i_glide_emodel>
-65.7812000565127

> <r_glide_XP_HBond>
-1.90641942459844

> <i_i_glide_confnum>
8

> <i_i_glide_posenum>
42

> <r_i_glide_eff_state_penalty>
0.519072

> <i_glide_XP_PoseRank>
1

> <r_lp_tautomer_probability>


> <s_epik_Chemistry_Notes>


> <MW>


> <cLogP>


> <TPSA>


> <Rotatable Bonds>


> <Fraction sp3>


> <HBA>


> <HBD>


> <Structure ID>


> <Submission Fragments>


$$$$
ligprep_COVID_compounds-withfrags-smallmolecules-forvalidation.maegz:70
                    3D
 Structure written by MMmdl.
 53 55  0  0  1  0            999 V2000
    0.5097   -9.1572   26.2469 C   0  0  0  0  0  0
    0.8795   -8.8347   24.9137 O   0  0  0  0  0  0
    1.9493   -7.9851   24.7221 C   0  0  0  0  0  0
    2.8795   -7.6420   25.7346 C   0  0  0  0  0  0
    3.9579   -6.7683   25.4594 C   0  0  0  0  0  0
    4.9590   -6.4195   26.5500 C   0  0  0  0  0  0
    5.1430   -5.0096   26.6797 O   0  0  0  0  0  0
    6.2056   -4.4307   26.0232 C   0  0  0  0  0  0
    7.5101   -4.9807   26.0193 C   0  0  0  0  0  0
    8.5572   -4.3046   25.3651 C   0  0  0  0  0  0
   10.1467   -4.9657   25.3706 Cl  0  0  0  0  0  0
    8.3174   -3.0790   24.7172 C   0  0  0  0  0  0
    7.0237   -2.5171   24.7252 C   0  0  0  0  0  0
    6.7624   -1.1711   24.0641 C   0  0  0  0  0  0
    6.5370   -1.2713   22.5486 C   0  0  0  0  0  0
    6.7749   -2.3143   21.9399 O   0  0  0  0  0  0
    6.0574   -0.1571   21.9725 N   0  0  0  0  0  0
    5.8586    0.1159   20.5908 C   0  0  0  0  0  0
    6.6151   -0.4886   19.5562 C   0  0  0  0  0  0
    6.4912   -0.1595   18.2487 N   0  0  0  0  0  0
    5.5781    0.7763   17.9239 C   0  0  0  0  0  0
    4.7750    1.4360   18.8672 C   0  0  0  0  0  0
    4.9204    1.1081   20.2256 C   0  0  0  0  0  0
    4.0898    1.8363   21.2640 C   0  0  0  0  0  0
    5.9769   -3.1980   25.3784 C   0  0  0  0  0  0
    4.1089   -6.2375   24.1621 C   0  0  0  0  0  0
    3.1844   -6.5640   23.1556 C   0  0  0  0  0  0
    2.1119   -7.4411   23.4283 C   0  0  0  0  0  0
    1.2430   -7.8030   22.4287 O   0  0  0  0  0  0
    0.1778   -6.9873   22.2083 C   0  0  0  0  0  0
   -0.5821   -6.8280   23.3239 F   0  0  0  0  0  0
    0.5713   -5.7635   21.7730 F   0  0  0  0  0  0
   -0.4703   -9.6314   26.2367 H   0  0  0  0  0  0
    0.4355   -8.2725   26.8794 H   0  0  0  0  0  0
    1.2038   -9.8663   26.6945 H   0  0  0  0  0  0
    2.7910   -8.0598   26.7282 H   0  0  0  0  0  0
    4.5984   -6.7928   27.5080 H   0  0  0  0  0  0
    5.8771   -6.9647   26.3476 H   0  0  0  0  0  0
    7.7319   -5.9063   26.5306 H   0  0  0  0  0  0
    9.1285   -2.5670   24.2205 H   0  0  0  0  0  0
    5.8951   -0.7026   24.5314 H   0  0  0  0  0  0
    7.6094   -0.5088   24.2471 H   0  0  0  0  0  0
    5.8006    0.5880   22.6019 H   0  0  0  0  0  0
    7.3805   -1.2161   19.7728 H   0  0  0  0  0  0
    5.5042    1.0365   16.8803 H   0  0  0  0  0  0
    4.0839    2.2049   18.5500 H   0  0  0  0  0  0
    3.4998    2.6320   20.8078 H   0  0  0  0  0  0
    4.7309    2.2902   22.0190 H   0  0  0  0  0  0
    3.4067    1.1449   21.7549 H   0  0  0  0  0  0
    4.9830   -2.7730   25.3905 H   0  0  0  0  0  0
    4.9300   -5.5752   23.9278 H   0  0  0  0  0  0
    3.3046   -6.1466   22.1699 H   0  0  0  0  0  0
   -0.4512   -7.4277   21.4349 H   0  0  0  0  0  0
  1  2  1  0  0  0
  1 33  1  0  0  0
  1 34  1  0  0  0
  1 35  1  0  0  0
  2  3  1  0  0  0
  3  4  2  0  0  0
  3 28  1  0  0  0
  4  5  1  0  0  0
  4 36  1  0  0  0
  5  6  1  0  0  0
  5 26  2  0  0  0
  6  7  1  0  0  0
  6 37  1  0  0  0
  6 38  1  0  0  0
  7  8  1  0  0  0
  8  9  2  0  0  0
  8 25  1  0  0  0
  9 10  1  0  0  0
  9 39  1  0  0  0
 10 11  1  0  0  0
 10 12  2  0  0  0
 12 13  1  0  0  0
 12 40  1  0  0  0
 13 14  1  0  0  0
 13 25  2  0  0  0
 14 15  1  0  0  0
 14 41  1  0  0  0
 14 42  1  0  0  0
 15 16  2  0  0  0
 15 17  1  0  0  0
 17 18  1  0  0  0
 17 43  1  0  0  0
 18 19  2  0  0  0
 18 23  1  0  0  0
 19 20  1  0  0  0
 19 44  1  0  0  0
 20 21  2  0  0  0
 21 22  1  0  0  0
 21 45  1  0  0  0
 22 23  2  0  0  0
 22 46  1  0  0  0
 23 24  1  0  0  0
 24 47  1  0  0  0
 24 48  1  0  0  0
 24 49  1  0  0  0
 25 50  1  0  0  0
 26 27  1  0  0  0
 26 51  1  0  0  0
 27 28  2  0  0  0
 27 52  1  0  0  0
 28 29  1  0  0  0
 29 30  1  0  0  0
 30 31  1  0  0  0
 30 32  1  0  0  0
 30 53  1  0  0  0
M  END
> <s_m_entry_id>
1445

> <s_m_entry_name>
Compounds-withfrags-for-validation-docking.1847

> <s_m_Source_Path>
/home/rodolpho/data/melina/maestro/glide-dock_XP_5RGK_M-PRO_VALIDATION

> <s_m_Source_File>
glide-dock_XP_5RGK_M-PRO_VALIDATION_pv.maegz

> <i_m_Source_File_Index>
1445

> <CID>
CHO-MSK-6e55470f-14

> <Potency>
99.5

> <pIC50>
4.00218

> <Source>
Postera

> <smiles>
COc1cc(COc2cc(Cl)cc(CC(=O)Nc3cnccc3C)c2)ccc1OC(F)F

> <Outcome>
Inactive

> <StandardizerResult>
Clear Stereo (ID: ClearStereo)
Wedge Clean (ID: WedgeClean)
Mesomerize (ID: Mesomerize)
Tautomerize (ID: Tautomerize)
Aromatize (ID: Aromatize)
Add Explicit Hydrogens (ID: AddExplicitH)
Neutralize (ID: Neutralize)
Clean 2D (ID: Clean2D)

> <chiral flag>
0

> <version>
0

> <i_lp_mmshare_version>
41011

> <i_f3d_flags>
0

> <s_epik_input>
RltDSF0oRilPYzFbY0hdW2NIXWMoW2NIXWMxT1tDSDNdKVtDSDJdT2MyW2NIXWMoQ2wpW2NIXWMoW2NIXTIpW0NIMl1DKD1PKVtOSF1jM1tjSF1uW2NIXVtjSF1jM1tDSDNd

> <s_epik_cmdline>
J2VwaWtfcHl0aG9uJywgJy1waHQnLCAnMC41JywgJy1waCcsICc3LjQnLCAnLXRuJywgJzgnLCAnLW1hJywgJzIwMCcsICctaW1hZScsICc8aW5maWxlLm1hZT4nLCAnLW9tYWUnLCAnPG91dGZpbGUubWFlPic=

> <r_lp_tautomer_probability>
1.0

> <r_epik_Ionization_Penalty>
0.0032

> <r_epik_Ionization_Penalty_Charging>
0.0

> <r_epik_Ionization_Penalty_Neutral>
0.0032

> <r_epik_State_Penalty>
0.0

> <r_epik_Charging_Adjusted_Penalty>
0.0

> <i_epik_Tot_Q>
0

> <i_epik_Tot_abs_Q>
0

> <s_lp_Force_Field>
OPLS3

> <r_lp_Energy>
48.9029

> <b_lp_Chiralities_Consistent>
1

> <s_lp_Variant>
ligprep_COVID_compounds-withfrags-smallmolecules-forvalidation.maegz:70-1

> <i_glide_original_lignum>
244

> <s_i_glide_gridfile>
glide-grid_5RGK_M-PRO_COVID

> <i_i_glide_lignum>
244

> <r_i_docking_score>
-4.26917258882218

> <r_i_glide_ligand_efficiency>
-0.133411643400693

> <r_i_glide_ligand_efficiency_sa>
-0.423555565668823

> <r_i_glide_ligand_efficiency_ln>
-0.955984115886854

> <r_glide_XP_GScore>
-4.26917258882218

> <r_i_glide_gscore>
-4.26917258882218

> <r_i_glide_evdw>
-45.3216743469238

> <r_i_glide_ecoul>
-4.70841026306152

> <r_i_glide_energy>
-50.0300846099854

> <r_i_glide_einternal>
1.77921307086945

> <r_i_glide_emodel>
-65.6907308195871

> <r_glide_XP_HBond>
-0.35

> <i_i_glide_confnum>
1

> <i_i_glide_posenum>
18

> <r_i_glide_eff_state_penalty>
0.0

> <i_glide_XP_PoseRank>
1

> <MW>
462.12

> <cLogP>
5.41

> <TPSA>
69.68

> <Rotatable Bonds>
9

> <Fraction sp3>
0.22

> <HBA>
5

> <HBD>
1

> <s_epik_Chemistry_Notes>


> <Structure ID>


> <Submission Fragments>


$$$$
ligprep_COVID_compounds-withfrags-smallmolecules-forvalidation.maegz:31
                    3D
 Structure written by MMmdl.
 56 59  0  0  1  0            999 V2000
    5.3107    1.0325   18.4498 N   0  0  0  0  0  0
    5.5929    0.6351   19.4991 C   0  0  0  0  0  0
    5.9551    0.1325   20.8151 C   0  0  0  0  0  0
    6.3750   -1.2045   20.9603 C   0  0  0  0  0  0
    6.7735   -1.6892   22.2222 C   0  0  0  0  0  0
    6.7495   -0.8551   23.3662 C   0  0  0  0  0  0
    7.1346   -1.3657   24.6551 N   0  0  0  0  0  0
    8.0800   -0.7562   25.4328 C   0  0  0  0  0  0
    8.2236   -1.0037   26.6316 O   0  0  0  0  0  0
    9.0224    0.2257   24.8473 C   0  0  0  0  0  0
    8.9298    1.5764   24.6333 C   0  0  0  0  0  0
   10.2045    2.0088   24.1713 C   0  0  0  0  0  0
   10.9988    0.8993   24.1696 C   0  0  0  0  0  0
   10.2955   -0.1905   24.5811 O   0  0  0  0  0  0
    6.5945   -2.7082   25.0287 C   0  0  2  0  0  0
    5.5045   -2.7460   26.1284 C   0  0  0  0  0  0
    4.8022   -1.7640   26.3546 O   0  0  0  0  0  0
    5.3109   -3.9268   26.7328 N   0  0  0  0  0  0
    4.2085   -4.3237   27.5935 C   0  0  0  0  0  0
    3.9319   -5.8350   27.4344 C   0  0  0  0  0  0
    3.5654   -6.2512   26.0124 C   0  0  0  0  0  0
    2.2345   -6.5987   25.6961 C   0  0  0  0  0  0
    1.8907   -6.9644   24.3793 C   0  0  0  0  0  0
    2.8702   -6.9625   23.3674 C   0  0  0  0  0  0
    4.1970   -6.6071   23.6735 C   0  0  0  0  0  0
    5.1379   -6.5632   22.6996 F   0  0  0  0  0  0
    4.5470   -6.2889   24.9968 C   0  0  0  0  0  0
    7.6585   -3.7591   25.2835 C   0  0  0  0  0  0
    8.0243   -4.6644   24.2596 C   0  0  0  0  0  0
    8.9871   -5.6578   24.4991 C   0  0  0  0  0  0
    9.5752   -5.7309   25.7703 C   0  0  0  0  0  0
    9.2576   -4.8841   26.7655 N   0  0  0  0  0  0
    8.3316   -3.9394   26.5207 C   0  0  0  0  0  0
    6.2837    0.4727   23.2116 C   0  0  0  0  0  0
    5.9037    0.9696   21.9468 C   0  0  0  0  0  0
    6.4112   -1.8637   20.1043 H   0  0  0  0  0  0
    7.1151   -2.7090   22.2865 H   0  0  0  0  0  0
    8.0576    2.1885   24.8054 H   0  0  0  0  0  0
   10.5034    3.0092   23.8986 H   0  0  0  0  0  0
   12.0332    0.7175   23.9182 H   0  0  0  0  0  0
    5.9930   -3.0665   24.1932 H   0  0  0  0  0  0
    5.9577   -4.6602   26.4803 H   0  0  0  0  0  0
    4.4654   -4.0901   28.6279 H   0  0  0  0  0  0
    3.3102   -3.7542   27.3480 H   0  0  0  0  0  0
    4.8076   -6.4080   27.7453 H   0  0  0  0  0  0
    3.1326   -6.1281   28.1154 H   0  0  0  0  0  0
    1.4719   -6.5849   26.4623 H   0  0  0  0  0  0
    0.8723   -7.2371   24.1439 H   0  0  0  0  0  0
    2.6067   -7.2244   22.3533 H   0  0  0  0  0  0
    5.5771   -6.0539   25.2172 H   0  0  0  0  0  0
    7.5558   -4.6145   23.2887 H   0  0  0  0  0  0
    9.2773   -6.3563   23.7274 H   0  0  0  0  0  0
   10.3186   -6.4797   25.9954 H   0  0  0  0  0  0
    8.0885   -3.3229   27.3700 H   0  0  0  0  0  0
    6.2181    1.1263   24.0666 H   0  0  0  0  0  0
    5.5790    1.9981   21.8517 H   0  0  0  0  0  0
  1  2  3  0  0  0
  2  3  1  0  0  0
  3  4  2  0  0  0
  3 35  1  0  0  0
  4  5  1  0  0  0
  4 36  1  0  0  0
  5  6  2  0  0  0
  5 37  1  0  0  0
  6  7  1  0  0  0
  6 34  1  0  0  0
  7  8  1  0  0  0
  7 15  1  0  0  0
  8  9  2  0  0  0
  8 10  1  0  0  0
 10 11  2  0  0  0
 10 14  1  0  0  0
 11 12  1  0  0  0
 11 38  1  0  0  0
 12 13  2  0  0  0
 12 39  1  0  0  0
 13 14  1  0  0  0
 13 40  1  0  0  0
 15 16  1  0  0  0
 15 28  1  0  0  0
 15 41  1  0  0  0
 16 17  2  0  0  0
 16 18  1  0  0  0
 18 19  1  0  0  0
 18 42  1  0  0  0
 19 20  1  0  0  0
 19 43  1  0  0  0
 19 44  1  0  0  0
 20 21  1  0  0  0
 20 45  1  0  0  0
 20 46  1  0  0  0
 21 22  2  0  0  0
 21 27  1  0  0  0
 22 23  1  0  0  0
 22 47  1  0  0  0
 23 24  2  0  0  0
 23 48  1  0  0  0
 24 25  1  0  0  0
 24 49  1  0  0  0
 25 26  1  0  0  0
 25 27  2  0  0  0
 27 50  1  0  0  0
 28 29  2  0  0  0
 28 33  1  0  0  0
 29 30  1  0  0  0
 29 51  1  0  0  0
 30 31  2  0  0  0
 30 52  1  0  0  0
 31 32  1  0  0  0
 31 53  1  0  0  0
 32 33  2  0  0  0
 33 54  1  0  0  0
 34 35  2  0  0  0
 34 55  1  0  0  0
 35 56  1  0  0  0
M  END
> <s_m_entry_id>
1450

> <s_m_entry_name>
Compounds-withfrags-for-validation-docking.1886

> <s_m_Source_Path>
/home/rodolpho/data/melina/maestro/glide-dock_XP_5RGK_M-PRO_VALIDATION

> <s_m_Source_File>
glide-dock_XP_5RGK_M-PRO_VALIDATION_pv.maegz

> <i_m_Source_File_Index>
1450

> <CID>
ALP-POS-b0bc6a46-24

> <Potency>
10.3952

> <pIC50>
4.98317

> <Source>
Postera

> <smiles>
N#Cc1ccc(N(C(=O)c2ccco2)C(C(=O)NCCc2cccc(F)c2)c2cccnc2)cc1

> <Outcome>
Inactive

> <StandardizerResult>
Clear Stereo (ID: ClearStereo)
Wedge Clean (ID: WedgeClean)
Mesomerize (ID: Mesomerize)
Tautomerize (ID: Tautomerize)
Aromatize (ID: Aromatize)
Add Explicit Hydrogens (ID: AddExplicitH)
Neutralize (ID: Neutralize)
Clean 2D (ID: Clean2D)

> <chiral flag>
0

> <version>
0

> <i_lp_mmshare_version>
41011

> <i_f3d_flags>
0

> <s_epik_input>
TiNDYzFbY0hdW2NIXWMoW2NIXVtjSF0xKU4oQyg9TyljMltjSF1bY0hdW2NIXW8yKVtDQEBIXShjM1tjSF1bY0hdW2NIXW5bY0hdMylDKD1PKVtOSF1bQ0gyXVtDSDJdYzRbY0hdW2NIXVtjSF1jKEYpW2NIXTQ=

> <s_epik_cmdline>
J2VwaWtfcHl0aG9uJywgJy1waHQnLCAnMC41JywgJy1waCcsICc3LjQnLCAnLXRuJywgJzgnLCAnLW1hJywgJzIwMCcsICctaW1hZScsICc8aW5maWxlLm1hZT4nLCAnLW9tYWUnLCAnPG91dGZpbGUubWFlPic=

> <r_lp_tautomer_probability>
1.0

> <r_epik_Ionization_Penalty>
5.0E-4

> <r_epik_Ionization_Penalty_Charging>
0.0

> <r_epik_Ionization_Penalty_Neutral>
5.0E-4

> <r_epik_State_Penalty>
0.0

> <r_epik_Charging_Adjusted_Penalty>
0.0

> <i_epik_Tot_Q>
0

> <i_epik_Tot_abs_Q>
0

> <s_lp_Force_Field>
OPLS3

> <r_lp_Energy>
66.1914

> <b_lp_Chiralities_Consistent>
1

> <s_lp_Variant>
ligprep_COVID_compounds-withfrags-smallmolecules-forvalidation.maegz:31-2

> <i_glide_original_lignum>
164

> <s_i_glide_gridfile>
glide-grid_5RGK_M-PRO_COVID

> <i_i_glide_lignum>
164

> <r_i_docking_score>
-4.2658716113549

> <r_i_glide_ligand_efficiency>
-0.121882046038711

> <r_i_glide_ligand_efficiency_sa>
-0.398684254141597

> <r_i_glide_ligand_efficiency_ln>
-0.936453494611811

> <r_glide_XP_GScore>
-4.2658716113549

> <r_i_glide_gscore>
-4.2658716113549

> <r_i_glide_evdw>
-49.0063362121582

> <r_i_glide_ecoul>
-5.05221080780029

> <r_i_glide_energy>
-54.0585470199585

> <r_i_glide_einternal>
7.88488245010376

> <r_i_glide_emodel>
-68.3550050439841

> <r_glide_XP_HBond>
-0.358013096798034

> <i_i_glide_confnum>
1

> <i_i_glide_posenum>
36

> <r_i_glide_eff_state_penalty>
0.0

> <i_glide_XP_PoseRank>
1

> <MW>
468.16

> <cLogP>
4.43

> <TPSA>
99.23

> <Rotatable Bonds>
8

> <Fraction sp3>
0.11

> <HBA>
5

> <HBD>
1

> <s_epik_Chemistry_Notes>


> <Structure ID>


> <Submission Fragments>


$$$$
ligprep_COVID_compounds-withfrags-smallmolecules-forvalidation.maegz:30
                    3D
 Structure written by MMmdl.
 62 65  0  0  1  0            999 V2000
    2.7533    0.0743   25.1776 C   0  0  0  0  0  0
    3.5959    0.9890   24.4876 O   0  0  0  0  0  0
    3.3136    1.3229   23.1741 C   0  0  0  0  0  0
    2.0084    1.4490   22.6667 C   0  0  0  0  0  0
    1.7858    1.7897   21.3305 C   0  0  0  0  0  0
    0.3650    1.9201   20.8126 C   0  0  0  0  0  0
    2.8719    2.0104   20.4824 C   0  0  0  0  0  0
    4.1721    1.8899   20.9656 C   0  0  0  0  0  0
    4.3968    1.5414   22.3022 C   0  0  0  0  0  0
    5.7308    1.4487   22.7605 N   0  0  0  0  0  0
    6.2956    2.4310   23.5483 C   0  0  0  0  0  0
    7.5067    2.4883   23.7720 O   0  0  0  0  0  0
    5.4551    3.4359   24.1735 C   0  0  0  0  0  0
    5.7929    4.6706   24.7199 C   0  0  0  0  0  0
    4.6367    5.1991   25.2951 C   0  0  0  0  0  0
    3.6512    4.2430   25.1279 C   0  0  0  0  0  0
    4.1549    3.1640   24.4766 O   0  0  0  0  0  0
    6.5429    0.3437   22.1599 C   0  0  1  0  0  0
    6.6416   -0.8639   23.1332 C   0  0  0  0  0  0
    6.7699   -2.0078   22.6949 O   0  0  0  0  0  0
    6.5838   -0.5657   24.4423 N   0  0  0  0  0  0
    6.8613   -1.5134   25.5174 C   0  0  0  0  0  0
    8.3591   -1.8419   25.6726 C   0  0  0  0  0  0
    8.6149   -3.3342   25.8163 C   0  0  0  0  0  0
    9.4745   -3.9887   24.9279 C   0  0  0  0  0  0
    9.7042   -5.3592   25.0534 C   0  0  0  0  0  0
    9.0760   -6.0820   26.0676 C   0  0  0  0  0  0
    8.2171   -5.4347   26.9563 C   0  0  0  0  0  0
    7.6071   -6.1357   27.9385 F   0  0  0  0  0  0
    7.9863   -4.0640   26.8310 C   0  0  0  0  0  0
    6.1778    0.0161   20.7069 C   0  0  0  0  0  0
    6.1938   -1.2956   20.1968 C   0  0  0  0  0  0
    5.8850   -1.5391   18.8579 C   0  0  0  0  0  0
    5.5772   -0.4545   18.0395 C   0  0  0  0  0  0
    5.5736    0.8248   18.4863 N   0  0  0  0  0  0
    5.8756    1.0393   19.7918 C   0  0  0  0  0  0
    3.1099   -0.0365   26.2016 H   0  0  0  0  0  0
    2.7700   -0.9130   24.7135 H   0  0  0  0  0  0
    1.7248    0.4349   25.2247 H   0  0  0  0  0  0
    1.1509    1.2841   23.3015 H   0  0  0  0  0  0
    0.3393    2.1718   19.7515 H   0  0  0  0  0  0
   -0.1658    2.7020   21.3566 H   0  0  0  0  0  0
   -0.1749    0.9824   20.9482 H   0  0  0  0  0  0
    2.7131    2.2770   19.4475 H   0  0  0  0  0  0
    5.0032    2.0657   20.2980 H   0  0  0  0  0  0
    6.7664    5.1382   24.6947 H   0  0  0  0  0  0
    4.5369    6.1533   25.7908 H   0  0  0  0  0  0
    2.6119    4.1863   25.4154 H   0  0  0  0  0  0
    7.5645    0.7259   22.1054 H   0  0  0  0  0  0
    6.3257    0.3704   24.7191 H   0  0  0  0  0  0
    6.4885   -1.0755   26.4442 H   0  0  0  0  0  0
    6.2835   -2.4281   25.3669 H   0  0  0  0  0  0
    8.9208   -1.4704   24.8138 H   0  0  0  0  0  0
    8.7701   -1.3210   26.5389 H   0  0  0  0  0  0
    9.9632   -3.4372   24.1376 H   0  0  0  0  0  0
   10.3677   -5.8610   24.3645 H   0  0  0  0  0  0
    9.2543   -7.1429   26.1636 H   0  0  0  0  0  0
    7.3180   -3.5716   27.5223 H   0  0  0  0  0  0
    6.4453   -2.1376   20.8241 H   0  0  0  0  0  0
    5.8878   -2.5449   18.4650 H   0  0  0  0  0  0
    5.3329   -0.6023   16.9978 H   0  0  0  0  0  0
    5.8708    2.0753   20.0955 H   0  0  0  0  0  0
  1  2  1  0  0  0
  1 37  1  0  0  0
  1 38  1  0  0  0
  1 39  1  0  0  0
  2  3  1  0  0  0
  3  4  2  0  0  0
  3  9  1  0  0  0
  4  5  1  0  0  0
  4 40  1  0  0  0
  5  6  1  0  0  0
  5  7  2  0  0  0
  6 41  1  0  0  0
  6 42  1  0  0  0
  6 43  1  0  0  0
  7  8  1  0  0  0
  7 44  1  0  0  0
  8  9  2  0  0  0
  8 45  1  0  0  0
  9 10  1  0  0  0
 10 11  1  0  0  0
 10 18  1  0  0  0
 11 12  2  0  0  0
 11 13  1  0  0  0
 13 14  2  0  0  0
 13 17  1  0  0  0
 14 15  1  0  0  0
 14 46  1  0  0  0
 15 16  2  0  0  0
 15 47  1  0  0  0
 16 17  1  0  0  0
 16 48  1  0  0  0
 18 19  1  0  0  0
 18 31  1  0  0  0
 18 49  1  0  0  0
 19 20  2  0  0  0
 19 21  1  0  0  0
 21 22  1  0  0  0
 21 50  1  0  0  0
 22 23  1  0  0  0
 22 51  1  0  0  0
 22 52  1  0  0  0
 23 24  1  0  0  0
 23 53  1  0  0  0
 23 54  1  0  0  0
 24 25  2  0  0  0
 24 30  1  0  0  0
 25 26  1  0  0  0
 25 55  1  0  0  0
 26 27  2  0  0  0
 26 56  1  0  0  0
 27 28  1  0  0  0
 27 57  1  0  0  0
 28 29  1  0  0  0
 28 30  2  0  0  0
 30 58  1  0  0  0
 31 32  2  0  0  0
 31 36  1  0  0  0
 32 33  1  0  0  0
 32 59  1  0  0  0
 33 34  2  0  0  0
 33 60  1  0  0  0
 34 35  1  0  0  0
 34 61  1  0  0  0
 35 36  2  0  0  0
 36 62  1  0  0  0
M  END
> <s_m_entry_id>
1478

> <s_m_entry_name>
Compounds-withfrags-for-validation-docking.1887

> <s_m_Source_Path>
/home/rodolpho/data/melina/maestro/glide-dock_XP_5RGK_M-PRO_VALIDATION

> <s_m_Source_File>
glide-dock_XP_5RGK_M-PRO_VALIDATION_pv.maegz

> <i_m_Source_File_Index>
1478

> <CID>
ALP-POS-b0bc6a46-25

> <Potency>
99.5

> <pIC50>
4.00218

> <Source>
Postera

> <smiles>
COc1cc(C)ccc1N(C(=O)c1ccco1)C(C(=O)NCCc1cccc(F)c1)c1cccnc1

> <Outcome>
Inactive

> <StandardizerResult>
Clear Stereo (ID: ClearStereo)
Wedge Clean (ID: WedgeClean)
Mesomerize (ID: Mesomerize)
Tautomerize (ID: Tautomerize)
Aromatize (ID: Aromatize)
Add Explicit Hydrogens (ID: AddExplicitH)
Neutralize (ID: Neutralize)
Clean 2D (ID: Clean2D)

> <chiral flag>
0

> <version>
0

> <i_lp_mmshare_version>
41011

> <i_f3d_flags>
0

> <s_epik_input>
W0NIM11PYzFbY0hdYyhbQ0gzXSlbY0hdW2NIXWMxTihDKD1PKWMyW2NIXVtjSF1bY0hdbzIpW0NASF0oYzNbY0hdW2NIXVtjSF1uW2NIXTMpQyg9TylbTkhdW0NIMl1bQ0gyXWM0W2NIXVtjSF1bY0hdYyhGKVtjSF00

> <s_epik_cmdline>
J2VwaWtfcHl0aG9uJywgJy1waHQnLCAnMC41JywgJy1waCcsICc3LjQnLCAnLXRuJywgJzgnLCAnLW1hJywgJzIwMCcsICctaW1hZScsICc8aW5maWxlLm1hZT4nLCAnLW9tYWUnLCAnPG91dGZpbGUubWFlPic=

> <r_lp_tautomer_probability>
1.0

> <r_epik_Ionization_Penalty>
6.0E-4

> <r_epik_Ionization_Penalty_Charging>
0.0

> <r_epik_Ionization_Penalty_Neutral>
6.0E-4

> <r_epik_State_Penalty>
0.0

> <r_epik_Charging_Adjusted_Penalty>
0.0

> <i_epik_Tot_Q>
0

> <i_epik_Tot_abs_Q>
0

> <s_lp_Force_Field>
OPLS3

> <r_lp_Energy>
75.3346

> <b_lp_Chiralities_Consistent>
1

> <s_lp_Variant>
ligprep_COVID_compounds-withfrags-smallmolecules-forvalidation.maegz:30-1

> <i_glide_original_lignum>
161

> <s_i_glide_gridfile>
glide-grid_5RGK_M-PRO_COVID

> <i_i_glide_lignum>
161

> <r_i_docking_score>
-4.25154314331647

> <r_i_glide_ligand_efficiency>
-0.11809842064768

> <r_i_glide_ligand_efficiency_sa>
-0.389952392722193

> <r_i_glide_ligand_efficiency_ln>
-0.927571850450027

> <r_glide_XP_GScore>
-4.25154314331647

> <r_i_glide_gscore>
-4.25154314331647

> <r_i_glide_evdw>
-30.4644451141357

> <r_i_glide_ecoul>
-3.85354161262512

> <r_i_glide_energy>
-34.3179867267609

> <r_i_glide_einternal>
4.27625703811646

> <r_i_glide_emodel>
-48.7396383486926

> <r_glide_XP_HBond>
-0.514472238775487

> <i_i_glide_confnum>
2

> <i_i_glide_posenum>
26

> <r_i_glide_eff_state_penalty>
0.0

> <i_glide_XP_PoseRank>
1

> <MW>
487.19

> <cLogP>
4.88

> <TPSA>
84.67

> <Rotatable Bonds>
9

> <Fraction sp3>
0.18

> <HBA>
5

> <HBD>
1

> <s_epik_Chemistry_Notes>


> <Structure ID>


> <Submission Fragments>


$$$$
ligprep_COVID_compounds-withfrags-smallmolecules-forvalidation.maegz:38
                    3D
 Structure written by MMmdl.
 68 71  0  0  1  0            999 V2000
   12.2999    1.0471   23.2252 C   0  0  0  0  0  0
   11.1051    1.6881   23.6386 O   0  0  0  0  0  0
   10.4324    1.2126   24.7048 C   0  0  0  0  0  0
   10.7742    0.2364   25.3701 O   0  0  0  0  0  0
    9.1692    1.9979   25.0863 C   0  0  0  0  0  0
    9.0653    3.4468   24.5759 C   0  0  0  0  0  0
    7.7161    3.6332   23.3708 S   0  0  0  0  0  0
    6.1378    3.6207   24.2026 C   0  0  0  0  0  0
    6.0938    4.4372   25.3566 C   0  0  0  0  0  0
    4.9375    4.5586   26.1362 C   0  0  0  0  0  0
    4.9290    5.5722   27.5315 Cl  0  0  0  0  0  0
    3.7958    3.8351   25.7820 C   0  0  0  0  0  0
    3.8169    3.0176   24.6399 C   0  0  0  0  0  0
    4.9468    2.9182   23.7710 C   0  0  0  0  0  0
    4.7740    2.1133   22.5482 N   0  0  0  0  0  0
    3.5595    2.0631   21.9075 C   0  0  0  0  0  0
    3.1465    1.0363   21.3707 O   0  0  0  0  0  0
    2.6112    3.2125   21.9370 C   0  0  0  0  0  0
    2.7748    4.5656   22.0943 C   0  0  0  0  0  0
    1.4871    5.1574   21.9866 C   0  0  0  0  0  0
    0.6215    4.1302   21.7523 C   0  0  0  0  0  0
    1.2887    2.9460   21.7125 O   0  0  0  0  0  0
    5.9046    1.2475   22.0464 C   0  0  1  0  0  0
    6.3800    0.1824   23.0413 C   0  0  0  0  0  0
    7.5746   -0.0770   23.0998 O   0  0  0  0  0  0
    5.4733   -0.4757   23.7722 N   0  0  0  0  0  0
    5.7842   -1.6658   24.5687 C   0  0  0  0  0  0
    6.7972   -1.4637   25.7181 C   0  0  0  0  0  0
    7.3766   -2.8025   26.1347 C   0  0  0  0  0  0
    8.6260   -3.2194   25.6246 C   0  0  0  0  0  0
    9.1242   -4.4995   25.9338 C   0  0  0  0  0  0
    8.3755   -5.3638   26.7551 C   0  0  0  0  0  0
    7.1408   -4.9422   27.2855 C   0  0  0  0  0  0
    6.4292   -5.7655   28.0913 F   0  0  0  0  0  0
    6.6401   -3.6650   26.9717 C   0  0  0  0  0  0
    5.7850    0.5687   20.6744 C   0  0  0  0  0  0
    5.5312    1.3576   19.5295 C   0  0  0  0  0  0
    5.5186    0.8196   18.2368 C   0  0  0  0  0  0
    5.7556   -0.5503   18.1052 C   0  0  0  0  0  0
    5.9746   -1.3547   19.1566 N   0  0  0  0  0  0
    5.9789   -0.8134   20.3900 C   0  0  0  0  0  0
   12.7341    1.5765   22.3760 H   0  0  0  0  0  0
   12.1010    0.0185   22.9212 H   0  0  0  0  0  0
   13.0353    1.0361   24.0304 H   0  0  0  0  0  0
    8.2878    1.4343   24.7976 H   0  0  0  0  0  0
    9.1311    2.0206   26.1709 H   0  0  0  0  0  0
    8.9078    4.1196   25.4179 H   0  0  0  0  0  0
    9.9840    3.7973   24.1076 H   0  0  0  0  0  0
    6.9595    5.0089   25.6516 H   0  0  0  0  0  0
    2.9040    3.9017   26.3863 H   0  0  0  0  0  0
    2.9080    2.4715   24.4345 H   0  0  0  0  0  0
    3.7089    5.0768   22.2657 H   0  0  0  0  0  0
    1.2331    6.2052   22.0610 H   0  0  0  0  0  0
   -0.4443    4.0660   21.5920 H   0  0  0  0  0  0
    6.7420    1.9031   21.8704 H   0  0  0  0  0  0
    4.4977   -0.2545   23.6390 H   0  0  0  0  0  0
    4.8605   -2.0851   24.9687 H   0  0  0  0  0  0
    6.1790   -2.4082   23.8707 H   0  0  0  0  0  0
    7.6244   -0.8145   25.4367 H   0  0  0  0  0  0
    6.3217   -0.9802   26.5705 H   0  0  0  0  0  0
    9.1933   -2.5688   24.9752 H   0  0  0  0  0  0
   10.0721   -4.8275   25.5319 H   0  0  0  0  0  0
    8.7435   -6.3565   26.9712 H   0  0  0  0  0  0
    5.6808   -3.3584   27.3628 H   0  0  0  0  0  0
    5.3556    2.4034   19.6491 H   0  0  0  0  0  0
    5.3259    1.4440   17.3771 H   0  0  0  0  0  0
    5.7822   -0.9870   17.1224 H   0  0  0  0  0  0
    6.1799   -1.5429   21.1610 H   0  0  0  0  0  0
  1  2  1  0  0  0
  1 42  1  0  0  0
  1 43  1  0  0  0
  1 44  1  0  0  0
  2  3  1  0  0  0
  3  4  2  0  0  0
  3  5  1  0  0  0
  5  6  1  0  0  0
  5 45  1  0  0  0
  5 46  1  0  0  0
  6  7  1  0  0  0
  6 47  1  0  0  0
  6 48  1  0  0  0
  7  8  1  0  0  0
  8  9  2  0  0  0
  8 14  1  0  0  0
  9 10  1  0  0  0
  9 49  1  0  0  0
 10 11  1  0  0  0
 10 12  2  0  0  0
 12 13  1  0  0  0
 12 50  1  0  0  0
 13 14  2  0  0  0
 13 51  1  0  0  0
 14 15  1  0  0  0
 15 16  1  0  0  0
 15 23  1  0  0  0
 16 17  2  0  0  0
 16 18  1  0  0  0
 18 19  2  0  0  0
 18 22  1  0  0  0
 19 20  1  0  0  0
 19 52  1  0  0  0
 20 21  2  0  0  0
 20 53  1  0  0  0
 21 22  1  0  0  0
 21 54  1  0  0  0
 23 24  1  0  0  0
 23 36  1  0  0  0
 23 55  1  0  0  0
 24 25  2  0  0  0
 24 26  1  0  0  0
 26 27  1  0  0  0
 26 56  1  0  0  0
 27 28  1  0  0  0
 27 57  1  0  0  0
 27 58  1  0  0  0
 28 29  1  0  0  0
 28 59  1  0  0  0
 28 60  1  0  0  0
 29 30  2  0  0  0
 29 35  1  0  0  0
 30 31  1  0  0  0
 30 61  1  0  0  0
 31 32  2  0  0  0
 31 62  1  0  0  0
 32 33  1  0  0  0
 32 63  1  0  0  0
 33 34  1  0  0  0
 33 35  2  0  0  0
 35 64  1  0  0  0
 36 37  2  0  0  0
 36 41  1  0  0  0
 37 38  1  0  0  0
 37 65  1  0  0  0
 38 39  2  0  0  0
 38 66  1  0  0  0
 39 40  1  0  0  0
 39 67  1  0  0  0
 40 41  2  0  0  0
 41 68  1  0  0  0
M  END
> <s_m_entry_id>
1497

> <s_m_entry_name>
Compounds-withfrags-for-validation-docking.1879

> <s_m_Source_Path>
/home/rodolpho/data/melina/maestro/glide-dock_XP_5RGK_M-PRO_VALIDATION

> <s_m_Source_File>
glide-dock_XP_5RGK_M-PRO_VALIDATION_pv.maegz

> <i_m_Source_File_Index>
1497

> <CID>
ALP-POS-b0bc6a46-17

> <Potency>
16.6406

> <pIC50>
4.77883

> <Source>
Postera

> <smiles>
COC(=O)CCSc1cc(Cl)ccc1N(C(=O)c1ccco1)C(C(=O)NCCc1cccc(F)c1)c1cccnc1

> <Outcome>
Inactive

> <StandardizerResult>
Clear Stereo (ID: ClearStereo)
Wedge Clean (ID: WedgeClean)
Mesomerize (ID: Mesomerize)
Tautomerize (ID: Tautomerize)
Aromatize (ID: Aromatize)
Add Explicit Hydrogens (ID: AddExplicitH)
Neutralize (ID: Neutralize)
Clean 2D (ID: Clean2D)

> <chiral flag>
0

> <version>
0

> <i_lp_mmshare_version>
41011

> <i_f3d_flags>
0

> <s_epik_input>
W0NIM11PQyg9TylbQ0gyXVtDSDJdU2MxW2NIXWMoQ2wpW2NIXVtjSF1jMU4oQyg9TyljMltjSF1bY0hdW2NIXW8yKVtDQEhdKGMzW2NIXVtjSF1bY0hdbltjSF0zKUMoPU8pW05IXVtDSDJdW0NIMl1jNFtjSF1bY0hdW2NIXWMoRilbY0hdNA==

> <s_epik_cmdline>
J2VwaWtfcHl0aG9uJywgJy1waHQnLCAnMC41JywgJy1waCcsICc3LjQnLCAnLXRuJywgJzgnLCAnLW1hJywgJzIwMCcsICctaW1hZScsICc8aW5maWxlLm1hZT4nLCAnLW9tYWUnLCAnPG91dGZpbGUubWFlPic=

> <r_lp_tautomer_probability>
1.0

> <r_epik_Ionization_Penalty>
6.0E-4

> <r_epik_Ionization_Penalty_Charging>
0.0

> <r_epik_Ionization_Penalty_Neutral>
6.0E-4

> <r_epik_State_Penalty>
0.0

> <r_epik_Charging_Adjusted_Penalty>
0.0

> <i_epik_Tot_Q>
0

> <i_epik_Tot_abs_Q>
0

> <s_lp_Force_Field>
OPLS3

> <r_lp_Energy>
65.4007

> <b_lp_Chiralities_Consistent>
1

> <s_lp_Variant>
ligprep_COVID_compounds-withfrags-smallmolecules-forvalidation.maegz:38-1

> <i_glide_original_lignum>
179

> <s_i_glide_gridfile>
glide-grid_5RGK_M-PRO_COVID

> <i_i_glide_lignum>
179

> <r_i_docking_score>
-4.2423765373507

> <r_i_glide_ligand_efficiency>
-0.103472598471968

> <r_i_glide_ligand_efficiency_sa>
-0.356795997516579

> <r_i_glide_ligand_efficiency_ln>
-0.900034300380802

> <r_glide_XP_GScore>
-4.2423765373507

> <r_i_glide_gscore>
-4.2423765373507

> <r_i_glide_evdw>
-39.7162208557129

> <r_i_glide_ecoul>
-6.09473276138306

> <r_i_glide_energy>
-45.8109536170959

> <r_i_glide_einternal>
5.27086114883423

> <r_i_glide_emodel>
-57.10941408603

> <r_glide_XP_HBond>
-1.74156568357767

> <i_i_glide_confnum>
2

> <i_i_glide_posenum>
27

> <r_i_glide_eff_state_penalty>
0.0

> <i_glide_XP_PoseRank>
1

> <s_epik_Chemistry_Notes>
This compound has an ester and may undergo hydrolysis at high or low pH.

> <MW>
595.13

> <cLogP>
5.87

> <TPSA>
101.74

> <Rotatable Bonds>
12

> <Fraction sp3>
0.2

> <HBA>
7

> <HBD>
1

> <Structure ID>


> <Submission Fragments>


$$$$
ligprep_COVID_compounds-withfrags-smallmolecules-forvalidation.maegz:81
                    3D
 Structure written by MMmdl.
 59 63  0  0  1  0            999 V2000
    9.6961   -1.3009   24.1669 O   0  0  0  0  0  0
    8.5771   -0.8234   24.3702 C   0  0  0  0  0  0
    8.5086    0.4410   25.2572 C   0  0  0  0  0  0
    9.2172    1.6400   24.6484 C   0  0  0  0  0  0
    8.6500    2.8293   24.5641 N   0  0  0  0  0  0
    9.5076    3.7409   23.9671 N   0  0  0  0  0  0
   10.6330    3.0558   23.6838 N   0  0  0  0  0  0
   11.7504    3.5717   23.0831 C   0  0  0  0  0  0
   12.8354    2.7285   22.8588 C   0  0  0  0  0  0
   12.7674    1.3899   23.2446 C   0  0  0  0  0  0
   11.6232    0.8694   23.8578 C   0  0  0  0  0  0
   10.5211    1.7161   24.0889 C   0  0  0  0  0  0
    7.4420   -1.3828   23.8575 N   0  0  0  0  0  0
    7.3458   -2.8386   23.6445 C   0  0  0  0  0  0
    8.2185   -3.6534   24.5895 C   0  0  0  0  0  0
    7.6578   -4.2238   25.7349 C   0  0  0  0  0  0
    8.4512   -4.9816   26.5919 C   0  0  0  0  0  0
    9.7991   -5.1737   26.2949 C   0  0  0  0  0  0
   10.3604   -4.6181   25.1466 C   0  0  0  0  0  0
    9.5671   -3.8609   24.2888 C   0  0  0  0  0  0
    6.3816   -0.6043   23.3648 C   0  0  0  0  0  0
    6.4465   -0.0568   22.0814 C   0  0  0  0  0  0
    5.3834    0.7002   21.5991 C   0  0  0  0  0  0
    4.2430    0.9177   22.3881 C   0  0  0  0  0  0
    3.1585    1.6648   21.9334 N   0  0  0  0  0  0
    2.7476    2.8315   22.7377 C   0  0  0  0  0  0
    1.2684    3.2041   22.4973 C   0  0  0  0  0  0
    0.9954    3.4890   21.0132 C   0  0  0  0  0  0
    1.5524    2.3539   20.1417 C   0  0  0  0  0  0
    3.0154    2.0217   20.5087 C   0  0  0  0  0  0
    4.1913    0.3515   23.6693 C   0  0  0  0  0  0
    5.2508   -0.4073   24.1578 C   0  0  0  0  0  0
    7.4862    0.7055   25.5236 H   0  0  0  0  0  0
    8.9710    0.1827   26.2103 H   0  0  0  0  0  0
   11.7368    4.6167   22.8090 H   0  0  0  0  0  0
   13.7288    3.1105   22.3867 H   0  0  0  0  0  0
   13.6141    0.7434   23.0655 H   0  0  0  0  0  0
   11.5897   -0.1704   24.1483 H   0  0  0  0  0  0
    6.3181   -3.1896   23.7537 H   0  0  0  0  0  0
    7.6288   -3.0651   22.6155 H   0  0  0  0  0  0
    6.6124   -4.0744   25.9639 H   0  0  0  0  0  0
    8.0233   -5.4187   27.4820 H   0  0  0  0  0  0
   10.4146   -5.7613   26.9599 H   0  0  0  0  0  0
   11.4052   -4.7746   24.9225 H   0  0  0  0  0  0
   10.0019   -3.4294   23.3988 H   0  0  0  0  0  0
    7.3147   -0.2184   21.4587 H   0  0  0  0  0  0
    5.4644    1.1194   20.6072 H   0  0  0  0  0  0
    2.8809    2.6308   23.8013 H   0  0  0  0  0  0
    3.3940    3.6793   22.5024 H   0  0  0  0  0  0
    0.6285    2.3891   22.8401 H   0  0  0  0  0  0
    1.0001    4.0738   23.0981 H   0  0  0  0  0  0
   -0.0727    3.6218   20.8365 H   0  0  0  0  0  0
    1.4747    4.4281   20.7320 H   0  0  0  0  0  0
    0.9366    1.4613   20.2649 H   0  0  0  0  0  0
    1.4842    2.6259   19.0880 H   0  0  0  0  0  0
    3.6683    2.8637   20.2704 H   0  0  0  0  0  0
    3.3362    1.1831   19.8889 H   0  0  0  0  0  0
    3.3202    0.4907   24.2934 H   0  0  0  0  0  0
    5.1905   -0.8380   25.1470 H   0  0  0  0  0  0
  1  2  2  0  0  0
  2  3  1  0  0  0
  2 13  1  0  0  0
  3  4  1  0  0  0
  3 33  1  0  0  0
  3 34  1  0  0  0
  4  5  1  0  0  0
  4 12  2  0  0  0
  5  6  2  0  0  0
  6  7  1  0  0  0
  7  8  1  0  0  0
  7 12  1  0  0  0
  8  9  2  0  0  0
  8 35  1  0  0  0
  9 10  1  0  0  0
  9 36  1  0  0  0
 10 11  2  0  0  0
 10 37  1  0  0  0
 11 12  1  0  0  0
 11 38  1  0  0  0
 13 14  1  0  0  0
 13 21  1  0  0  0
 14 15  1  0  0  0
 14 39  1  0  0  0
 14 40  1  0  0  0
 15 16  2  0  0  0
 15 20  1  0  0  0
 16 17  1  0  0  0
 16 41  1  0  0  0
 17 18  2  0  0  0
 17 42  1  0  0  0
 18 19  1  0  0  0
 18 43  1  0  0  0
 19 20  2  0  0  0
 19 44  1  0  0  0
 20 45  1  0  0  0
 21 22  2  0  0  0
 21 32  1  0  0  0
 22 23  1  0  0  0
 22 46  1  0  0  0
 23 24  2  0  0  0
 23 47  1  0  0  0
 24 25  1  0  0  0
 24 31  1  0  0  0
 25 26  1  0  0  0
 25 30  1  0  0  0
 26 27  1  0  0  0
 26 48  1  0  0  0
 26 49  1  0  0  0
 27 28  1  0  0  0
 27 50  1  0  0  0
 27 51  1  0  0  0
 28 29  1  0  0  0
 28 52  1  0  0  0
 28 53  1  0  0  0
 29 30  1  0  0  0
 29 54  1  0  0  0
 29 55  1  0  0  0
 30 56  1  0  0  0
 30 57  1  0  0  0
 31 32  2  0  0  0
 31 58  1  0  0  0
 32 59  1  0  0  0
M  END
> <s_m_entry_id>
1498

> <s_m_entry_name>
Compounds-withfrags-for-validation-docking.1836

> <s_m_Source_Path>
/home/rodolpho/data/melina/maestro/glide-dock_XP_5RGK_M-PRO_VALIDATION

> <s_m_Source_File>
glide-dock_XP_5RGK_M-PRO_VALIDATION_pv.maegz

> <i_m_Source_File_Index>
1498

> <CID>
ALP-POS-8ed8d9ec-13

> <Potency>
99.5

> <pIC50>
4.00218

> <Source>
Postera

> <smiles>
O=C(Cc1nnn2ccccc12)N(Cc1ccccc1)c1ccc(N2CCCCC2)cc1

> <Outcome>
Inactive

> <StandardizerResult>
Clear Stereo (ID: ClearStereo)
Wedge Clean (ID: WedgeClean)
Mesomerize (ID: Mesomerize)
Tautomerize (ID: Tautomerize)
Aromatize (ID: Aromatize)
Add Explicit Hydrogens (ID: AddExplicitH)
Neutralize (ID: Neutralize)
Clean 2D (ID: Clean2D)

> <chiral flag>
0

> <version>
0

> <i_lp_mmshare_version>
41011

> <i_f3d_flags>
0

> <s_epik_input>
W2NIXTFbY0hdW2NIXVtjSF1jKG4xMiljKG5uMilbQ0gyXUMoPU8pTihbQ0gyXWMzW2NIXVtjSF1bY0hdW2NIXVtjSF0zKWM0W2NIXVtjSF1jKFtjSF1bY0hdNClONVtDSDJdW0NIMl1bQ0gyXVtDSDJdW0NIMl01

> <s_epik_cmdline>
J2VwaWtfcHl0aG9uJywgJy1waHQnLCAnMC41JywgJy1waCcsICc3LjQnLCAnLXRuJywgJzgnLCAnLW1hJywgJzIwMCcsICctaW1hZScsICc8aW5maWxlLm1hZT4nLCAnLW9tYWUnLCAnPG91dGZpbGUubWFlPic=

> <r_epik_Ionization_Penalty>
0.0215

> <r_epik_Ionization_Penalty_Charging>
0.0

> <r_epik_Ionization_Penalty_Neutral>
0.0215

> <r_epik_State_Penalty>
0.0173

> <r_epik_Charging_Adjusted_Penalty>
0.0172741

> <i_epik_Tot_Q>
0

> <i_epik_Tot_abs_Q>
0

> <s_lp_Force_Field>
OPLS3

> <r_lp_Energy>
53.9678

> <b_lp_Chiralities_Consistent>
1

> <s_lp_Variant>
ligprep_COVID_compounds-withfrags-smallmolecules-forvalidation.maegz:81-1

> <i_glide_original_lignum>
262

> <s_i_glide_gridfile>
glide-grid_5RGK_M-PRO_COVID

> <i_i_glide_lignum>
262

> <r_i_docking_score>
-4.24183016042783

> <r_i_glide_ligand_efficiency>
-0.13255719251337

> <r_i_glide_ligand_efficiency_sa>
-0.420842853197171

> <r_i_glide_ligand_efficiency_ln>
-0.94986140084291

> <r_glide_XP_GScore>
-4.25910426042783

> <r_i_glide_gscore>
-4.25910426042783

> <r_i_glide_evdw>
-32.7550659179688

> <r_i_glide_ecoul>
-6.54687118530273

> <r_i_glide_energy>
-39.3019371032715

> <r_i_glide_einternal>
2.24267983436584

> <r_i_glide_emodel>
-57.9084507476513

> <r_glide_XP_HBond>
-0.154357832178255

> <i_i_glide_confnum>
1

> <i_i_glide_posenum>
40

> <r_i_glide_eff_state_penalty>
0.0172741

> <i_glide_XP_PoseRank>
1

> <MW>
425.22

> <cLogP>
4.5

> <TPSA>
53.74

> <Rotatable Bonds>
6

> <Fraction sp3>
0.27

> <HBA>
5

> <HBD>
0

> <r_lp_tautomer_probability>


> <s_epik_Chemistry_Notes>


> <Structure ID>


> <Submission Fragments>


$$$$
ligprep_COVID_compounds-withfrags-smallmolecules-forvalidation.maegz:1
                    3D
 Structure written by MMmdl.
 43 45  0  0  1  0            999 V2000
    8.8180    2.9331   24.4035 C   0  0  0  0  0  0
    7.4417    3.0185   23.7263 C   0  0  0  0  0  0
    6.4476    3.8466   24.5509 C   0  0  0  0  0  0
    6.8878    1.7164   23.3654 N   0  0  0  0  0  0
    7.1748    0.3797   23.6224 C   0  0  0  0  0  0
    7.9740   -0.0493   24.6007 N   0  0  0  0  0  0
    7.9578   -1.4177   24.4232 C   0  0  0  0  0  0
    8.6101   -2.4457   25.1388 C   0  0  0  0  0  0
    8.5421   -3.7870   24.7044 C   0  0  0  0  0  0
    7.7943   -4.1168   23.5501 C   0  0  0  0  0  0
    7.1130   -3.1077   22.8476 C   0  0  0  0  0  0
    7.1754   -1.7716   23.2908 C   0  0  0  0  0  0
    6.6482   -0.5782   22.8164 N   0  0  0  0  0  0
    5.7241   -0.4824   21.6349 C   0  0  2  0  0  0
    6.3092    0.2976   20.4558 C   0  0  1  0  0  0
    7.0869   -0.5338   19.6170 O   0  0  0  0  0  0
    5.0070    0.6711   19.7590 C   0  0  2  0  0  0
    5.1413    1.7318   18.8308 O   0  0  0  0  0  0
    4.0239    0.9278   20.9272 C   0  0  2  0  0  0
    3.9027    2.3569   21.4432 C   0  0  0  0  0  0
    2.7893    2.4807   22.3062 O   0  0  0  0  0  0
    4.5631    0.1793   22.0205 O   0  0  0  0  0  0
    7.6920   -5.7415   22.9708 Cl  0  0  0  0  0  0
    9.4038   -4.9984   25.5854 Cl  0  0  0  0  0  0
    9.2425    3.9266   24.5417 H   0  0  0  0  0  0
    9.5193    2.3551   23.8005 H   0  0  0  0  0  0
    8.7514    2.4646   25.3859 H   0  0  0  0  0  0
    7.5822    3.5431   22.7793 H   0  0  0  0  0  0
    6.8103    4.8678   24.6734 H   0  0  0  0  0  0
    6.2966    3.4346   25.5479 H   0  0  0  0  0  0
    5.4803    3.9084   24.0530 H   0  0  0  0  0  0
    6.1807    1.8141   22.6503 H   0  0  0  0  0  0
    9.1749   -2.1950   26.0209 H   0  0  0  0  0  0
    6.5452   -3.3640   21.9673 H   0  0  0  0  0  0
    5.4671   -1.5074   21.3698 H   0  0  0  0  0  0
    6.8557    1.1789   20.7906 H   0  0  0  0  0  0
    7.8146   -0.8706   20.1229 H   0  0  0  0  0  0
    4.6489   -0.1990   19.2065 H   0  0  0  0  0  0
    5.1503    2.5729   19.2764 H   0  0  0  0  0  0
    3.0189    0.6361   20.6469 H   0  0  0  0  0  0
    4.8102    2.6363   21.9635 H   0  0  0  0  0  0
    3.7267    3.0365   20.6141 H   0  0  0  0  0  0
    2.7339    3.3859   22.5734 H   0  0  0  0  0  0
  1  2  1  0  0  0
  1 25  1  0  0  0
  1 26  1  0  0  0
  1 27  1  0  0  0
  2  3  1  0  0  0
  2  4  1  0  0  0
  2 28  1  0  0  0
  3 29  1  0  0  0
  3 30  1  0  0  0
  3 31  1  0  0  0
  4  5  1  0  0  0
  4 32  1  0  0  0
  5  6  2  0  0  0
  5 13  1  0  0  0
  6  7  1  0  0  0
  7  8  2  0  0  0
  7 12  1  0  0  0
  8  9  1  0  0  0
  8 33  1  0  0  0
  9 10  2  0  0  0
  9 24  1  0  0  0
 10 11  1  0  0  0
 10 23  1  0  0  0
 11 12  2  0  0  0
 11 34  1  0  0  0
 12 13  1  0  0  0
 13 14  1  0  0  0
 14 15  1  0  0  0
 14 22  1  0  0  0
 14 35  1  0  0  0
 15 16  1  0  0  0
 15 17  1  0  0  0
 15 36  1  0  0  0
 16 37  1  0  0  0
 17 18  1  0  0  0
 17 19  1  0  0  0
 17 38  1  0  0  0
 18 39  1  0  0  0
 19 20  1  0  0  0
 19 22  1  0  0  0
 19 40  1  0  0  0
 20 21  1  0  0  0
 20 41  1  0  0  0
 20 42  1  0  0  0
 21 43  1  0  0  0
M  END
> <s_m_entry_id>
1515

> <s_m_entry_name>
Compounds-withfrags-for-validation-docking.1916

> <s_m_Source_Path>
/home/rodolpho/data/melina/maestro/glide-dock_XP_5RGK_M-PRO_VALIDATION

> <s_m_Source_File>
glide-dock_XP_5RGK_M-PRO_VALIDATION_pv.maegz

> <i_m_Source_File_Index>
1515

> <CID>
Maribavir

> <pIC50>
4.30103

> <Source>
https://doi.org/10.1101/2020.03.23.004580

> <smiles>
C(C(C([H])([H])[H])(N(C1=NC2=C(C(=C(C([H])=C2N1C1(C(O[H])([H])C(O[H])([H])C(C(O[H])([H])[H])([H])O1)[H])Cl)Cl)[H])[H])[H])([H])([H])[H]

> <Outcome>
Inactive

> <StandardizerResult>
Clear Stereo (ID: ClearStereo)
Wedge Clean (ID: WedgeClean)
Mesomerize (ID: Mesomerize)
Tautomerize (ID: Tautomerize)
Aromatize (ID: Aromatize)
Add Explicit Hydrogens (ID: AddExplicitH)
Neutralize (ID: Neutralize)
Clean 2D (ID: Clean2D)

> <chiral flag>
0

> <version>
0

> <i_lp_mmshare_version>
41011

> <i_f3d_flags>
0

> <s_epik_input>
W2NIXTFjKENsKWMoQ2wpW2NIXWMoYzEyKW4oYyhuMilbTkhdW0NIXShbQ0gzXSlbQ0gzXSlbQ0BASF0zW0NAQEhdKFtPSF0pW0NASF0oW09IXSlbQ0BASF0oTzMpW0NIMl1bT0hd

> <s_epik_cmdline>
J2VwaWtfcHl0aG9uJywgJy1waHQnLCAnMC41JywgJy1waCcsICc3LjQnLCAnLXRuJywgJzgnLCAnLW1hJywgJzIwMCcsICctaW1hZScsICc8aW5maWxlLm1hZT4nLCAnLW9tYWUnLCAnPG91dGZpbGUubWFlPic=

> <r_epik_Ionization_Penalty>
0.01

> <r_epik_Ionization_Penalty_Charging>
0.0

> <r_epik_Ionization_Penalty_Neutral>
0.01

> <r_epik_State_Penalty>
0.0076

> <r_epik_Charging_Adjusted_Penalty>
0.00760364

> <i_epik_Tot_Q>
0

> <i_epik_Tot_abs_Q>
0

> <s_lp_Force_Field>
OPLS3

> <r_lp_Energy>
14.4686

> <b_lp_Chiralities_Consistent>
1

> <s_lp_Variant>
ligprep_COVID_compounds-withfrags-smallmolecules-forvalidation.maegz:1-16

> <i_glide_original_lignum>
16

> <s_i_glide_gridfile>
glide-grid_5RGK_M-PRO_COVID

> <i_i_glide_lignum>
16

> <r_i_docking_score>
-4.22614681032594

> <r_i_glide_ligand_efficiency>
-0.176089450430248

> <r_i_glide_ligand_efficiency_sa>
-0.507929867899309

> <r_i_glide_ligand_efficiency_ln>
-1.01151085695179

> <r_glide_XP_GScore>
-4.23375045032595

> <r_i_glide_gscore>
-4.23375045032595

> <r_i_glide_evdw>
-30.042200088501

> <r_i_glide_ecoul>
-8.35723686218262

> <r_i_glide_energy>
-38.3994369506836

> <r_i_glide_einternal>
3.07303261756897

> <r_i_glide_emodel>
-43.5858798863843

> <r_glide_XP_HBond>
-1.39790867311748

> <i_i_glide_confnum>
1

> <i_i_glide_posenum>
13

> <r_i_glide_eff_state_penalty>
0.00760364

> <i_glide_XP_PoseRank>
1

> <s_epik_Chemistry_Notes>
This compound contains an acetal/aminal-like group ( X-CH(R)-Y where X, Y are N, S, or O) that may be acid/base labile, releasing an aldehyde.

> <Potency>
50.0

> <r_lp_tautomer_probability>


> <MW>


> <cLogP>


> <TPSA>


> <Rotatable Bonds>


> <Fraction sp3>


> <HBA>


> <HBD>


> <Structure ID>


> <Submission Fragments>


$$$$
ligprep_COVID_compounds-withfrags-smallmolecules-forvalidation.maegz:80
                    3D
 Structure written by MMmdl.
 46 49  0  0  1  0            999 V2000
    8.3432   -4.5735   26.0627 C   0  0  0  0  0  0
    8.7759   -3.2248   26.1917 O   0  0  0  0  0  0
    8.2597   -2.2866   25.3247 C   0  0  0  0  0  0
    8.7711   -0.9798   25.4136 C   0  0  0  0  0  0
    8.2960    0.0431   24.5722 C   0  0  0  0  0  0
    7.2675   -0.1992   23.6246 C   0  0  0  0  0  0
    6.7557    0.9254   22.6883 C   0  0  1  0  0  0
    5.3933    0.6608   21.9729 C   0  0  0  0  0  0
    5.5438    0.3140   20.5164 C   0  0  0  0  0  0
    5.9749   -0.9426   19.9884 C   0  0  0  0  0  0
    6.0098   -0.9639   18.6181 C   0  0  0  0  0  0
    5.5750    0.5728   17.9360 S   0  0  0  0  0  0
    5.2644    1.2142   19.5202 C   0  0  0  0  0  0
    6.7437    2.2956   23.4017 C   0  0  0  0  0  0
    5.7482    2.6370   24.0446 O   0  0  0  0  0  0
    7.8601    3.0418   23.2794 N   0  0  0  0  0  0
    8.2148    4.2103   24.0044 C   0  0  0  0  0  0
    7.4309    4.9021   24.8016 N   0  0  0  0  0  0
    8.2159    5.8775   25.3215 N   0  0  0  0  0  0
    9.5284    5.8325   24.8861 C   0  0  0  0  0  0
   10.6748    6.5963   25.1707 C   0  0  0  0  0  0
   11.8932    6.2544   24.5540 C   0  0  0  0  0  0
   11.9483    5.1753   23.6491 C   0  0  0  0  0  0
   10.7906    4.4198   23.3709 C   0  0  0  0  0  0
    9.5546    4.7279   23.9888 C   0  0  0  0  0  0
    6.7752   -1.5212   23.5302 C   0  0  0  0  0  0
    7.2580   -2.5506   24.3620 C   0  0  0  0  0  0
    8.8600   -5.1893   26.7975 H   0  0  0  0  0  0
    8.5774   -4.9749   25.0761 H   0  0  0  0  0  0
    7.2734   -4.6731   26.2475 H   0  0  0  0  0  0
    9.5385   -0.7568   26.1393 H   0  0  0  0  0  0
    8.7353    1.0216   24.6831 H   0  0  0  0  0  0
    7.5095    0.9957   21.9081 H   0  0  0  0  0  0
    4.7874   -0.0769   22.4968 H   0  0  0  0  0  0
    4.7681    1.5550   22.0169 H   0  0  0  0  0  0
    6.2336   -1.7849   20.6113 H   0  0  0  0  0  0
    6.2643   -1.7881   17.9679 H   0  0  0  0  0  0
    4.9179    2.2363   19.6231 H   0  0  0  0  0  0
    8.5608    2.6828   22.6483 H   0  0  0  0  0  0
    7.8315    6.5375   25.9813 H   0  0  0  0  0  0
   10.6245    7.4249   25.8614 H   0  0  0  0  0  0
   12.7821    6.8296   24.7645 H   0  0  0  0  0  0
   12.8808    4.9256   23.1651 H   0  0  0  0  0  0
   10.8440    3.6020   22.6681 H   0  0  0  0  0  0
    6.0126   -1.7813   22.8150 H   0  0  0  0  0  0
    6.8361   -3.5361   24.2434 H   0  0  0  0  0  0
  1  2  1  0  0  0
  1 28  1  0  0  0
  1 29  1  0  0  0
  1 30  1  0  0  0
  2  3  1  0  0  0
  3  4  2  0  0  0
  3 27  1  0  0  0
  4  5  1  0  0  0
  4 31  1  0  0  0
  5  6  2  0  0  0
  5 32  1  0  0  0
  6  7  1  0  0  0
  6 26  1  0  0  0
  7  8  1  0  0  0
  7 14  1  0  0  0
  7 33  1  0  0  0
  8  9  1  0  0  0
  8 34  1  0  0  0
  8 35  1  0  0  0
  9 10  1  0  0  0
  9 13  2  0  0  0
 10 11  2  0  0  0
 10 36  1  0  0  0
 11 12  1  0  0  0
 11 37  1  0  0  0
 12 13  1  0  0  0
 13 38  1  0  0  0
 14 15  2  0  0  0
 14 16  1  0  0  0
 16 39  1  0  0  0
 16 17  1  0  0  0
 17 25  1  0  0  0
 17 18  2  0  0  0
 18 19  1  0  0  0
 19 40  1  0  0  0
 19 20  1  0  0  0
 20 21  1  0  0  0
 20 25  2  0  0  0
 21 41  1  0  0  0
 21 22  2  0  0  0
 22 42  1  0  0  0
 22 23  1  0  0  0
 23 43  1  0  0  0
 23 24  2  0  0  0
 24 44  1  0  0  0
 24 25  1  0  0  0
 26 27  2  0  0  0
 26 45  1  0  0  0
 27 46  1  0  0  0
M  END
> <s_m_entry_id>
1520

> <s_m_entry_name>
Compounds-withfrags-for-validation-docking.1837

> <s_m_Source_Path>
/home/rodolpho/data/melina/maestro/glide-dock_XP_5RGK_M-PRO_VALIDATION

> <s_m_Source_File>
glide-dock_XP_5RGK_M-PRO_VALIDATION_pv.maegz

> <i_m_Source_File_Index>
1520

> <CID>
ALP-POS-a3de0cb1-3

> <Potency>
99.5

> <pIC50>
4.00218

> <Source>
Postera

> <smiles>
COc1ccc(C(Cc2ccsc2)C(=O)Nc2n[nH]c3ccccc23)cc1

> <Outcome>
Inactive

> <StandardizerResult>
Clear Stereo (ID: ClearStereo)
Wedge Clean (ID: WedgeClean)
Mesomerize (ID: Mesomerize)
Tautomerize (ID: Tautomerize)
Aromatize (ID: Aromatize)
Add Explicit Hydrogens (ID: AddExplicitH)
Neutralize (ID: Neutralize)
Clean 2D (ID: Clean2D)

> <chiral flag>
0

> <version>
0

> <i_lp_mmshare_version>
41011

> <i_f3d_flags>
0

> <s_epik_input>
W0NIM11PYzFbY0hdW2NIXWMoW2NIXVtjSF0xKVtDQEBIXShbQ0gyXWMyW2NIXVtjSF1zW2NIXTIpQyg9TylbTkhdYyhbbkhdbjMpYyhjMzQpW2NIXVtjSF1bY0hdW2NIXTQ=

> <s_epik_cmdline>
J2VwaWtfcHl0aG9uJywgJy1waHQnLCAnMC41JywgJy1waCcsICc3LjQnLCAnLXRuJywgJzgnLCAnLW1hJywgJzIwMCcsICctaW1hZScsICc8aW5maWxlLm1hZT4nLCAnLW9tYWUnLCAnPG91dGZpbGUubWFlPic=

> <r_lp_tautomer_probability>
1.0

> <r_epik_Ionization_Penalty>
0.0

> <r_epik_Ionization_Penalty_Charging>
0.0

> <r_epik_Ionization_Penalty_Neutral>
0.0

> <r_epik_State_Penalty>
0.0

> <r_epik_Charging_Adjusted_Penalty>
0.0

> <i_epik_Tot_Q>
0

> <i_epik_Tot_abs_Q>
0

> <s_lp_Force_Field>
OPLS3

> <r_lp_Energy>
33.5978

> <b_lp_Chiralities_Consistent>
1

> <s_lp_Variant>
ligprep_COVID_compounds-withfrags-smallmolecules-forvalidation.maegz:80-1

> <i_glide_original_lignum>
260

> <s_i_glide_gridfile>
glide-grid_5RGK_M-PRO_COVID

> <i_i_glide_lignum>
260

> <r_i_docking_score>
-4.22395315600139

> <r_i_glide_ligand_efficiency>
-0.156442709481533

> <r_i_glide_ligand_efficiency_sa>
-0.469328127928989

> <r_i_glide_ligand_efficiency_ln>
-0.983266657406894

> <r_glide_XP_GScore>
-4.22395315600139

> <r_i_glide_gscore>
-4.22395315600139

> <r_i_glide_evdw>
-38.257698059082

> <r_i_glide_ecoul>
-6.18145799636841

> <r_i_glide_energy>
-44.4391560554504

> <r_i_glide_einternal>
6.0617504119873

> <r_i_glide_emodel>
-56.7453064640962

> <r_glide_XP_HBond>
-0.961921888861516

> <i_i_glide_confnum>
3

> <i_i_glide_posenum>
1

> <r_i_glide_eff_state_penalty>
0.0

> <i_glide_XP_PoseRank>
1

> <MW>
377.12

> <cLogP>
4.6

> <TPSA>
67.01

> <Rotatable Bonds>
6

> <Fraction sp3>
0.14

> <HBA>
4

> <HBD>
2

> <s_epik_Chemistry_Notes>


> <Structure ID>


> <Submission Fragments>


$$$$
ligprep_COVID_compounds-withfrags-smallmolecules-forvalidation.maegz:68
                    3D
 Structure written by MMmdl.
 51 54  0  0  1  0            999 V2000
   -3.2280   -3.7586   16.2902 C   0  0  0  0  0  0
   -3.9352   -5.1080   16.2334 C   0  0  0  0  0  0
   -4.5278   -5.5184   15.0332 C   0  0  0  0  0  0
   -5.1709   -6.7547   14.9853 C   0  0  0  0  0  0
   -5.2561   -7.5832   16.0544 N   0  0  0  0  0  0
   -4.6794   -7.1809   17.2145 C   0  0  0  0  0  0
   -3.9998   -5.9581   17.3543 C   0  0  0  0  0  0
   -3.4243   -5.5330   18.5670 N   0  0  0  0  0  0
   -3.1104   -6.2791   19.6476 C   0  0  0  0  0  0
   -3.3873   -7.4708   19.7883 O   0  0  0  0  0  0
   -2.3152   -5.5582   20.7425 C   0  0  0  0  0  0
   -1.2241   -6.4594   21.3087 C   0  0  0  0  0  0
   -0.4237   -7.2211   20.4528 C   0  0  0  0  0  0
    0.5907   -8.0241   20.9716 C   0  0  0  0  0  0
    1.5755   -8.9636   19.9106 Cl  0  0  0  0  0  0
    0.8115   -8.0651   22.3481 C   0  0  0  0  0  0
    0.0287   -7.3069   23.2216 C   0  0  0  0  0  0
    0.3254   -7.4062   24.5671 O   0  0  0  0  0  0
    1.5138   -8.0781   24.9760 C   0  0  0  0  0  0
    2.7098   -7.2803   24.5165 C   0  0  0  0  0  0
    3.8662   -6.8374   25.1188 C   0  0  0  0  0  0
    4.5725   -6.1547   24.1241 C   0  0  0  0  0  0
    5.9069   -5.4821   24.2468 C   0  0  0  0  0  0
    6.4845   -4.8744   23.1249 C   0  0  0  0  0  0
    7.7214   -4.2422   23.2238 C   0  0  0  0  0  0
    8.3882   -4.2148   24.4463 C   0  0  0  0  0  0
    9.9206   -3.4298   24.5691 Cl  0  0  0  0  0  0
    7.8262   -4.8153   25.5704 C   0  0  0  0  0  0
    6.5892   -5.4466   25.4709 C   0  0  0  0  0  0
    3.9008   -6.1642   22.9889 N   0  0  0  0  0  0
    2.7230   -6.8758   23.2227 O   0  0  0  0  0  0
   -0.9925   -6.5019   22.6883 C   0  0  0  0  0  0
   -2.1884   -3.8855   16.5958 H   0  0  0  0  0  0
   -3.7193   -3.1024   17.0093 H   0  0  0  0  0  0
   -3.2303   -3.2550   15.3225 H   0  0  0  0  0  0
   -4.4926   -4.8943   14.1520 H   0  0  0  0  0  0
   -5.6364   -7.0977   14.0729 H   0  0  0  0  0  0
   -4.7983   -7.8647   18.0414 H   0  0  0  0  0  0
   -3.1478   -4.5626   18.5888 H   0  0  0  0  0  0
   -1.8721   -4.6441   20.3422 H   0  0  0  0  0  0
   -2.9945   -5.2433   21.5367 H   0  0  0  0  0  0
   -0.5860   -7.1858   19.3850 H   0  0  0  0  0  0
    1.6008   -8.6883   22.7436 H   0  0  0  0  0  0
    1.5293   -8.1890   26.0617 H   0  0  0  0  0  0
    1.5411   -9.0801   24.5444 H   0  0  0  0  0  0
    4.1613   -6.9924   26.1457 H   0  0  0  0  0  0
    5.9791   -4.8813   22.1705 H   0  0  0  0  0  0
    8.1583   -3.7739   22.3538 H   0  0  0  0  0  0
    8.3449   -4.7925   26.5177 H   0  0  0  0  0  0
    6.1667   -5.9092   26.3512 H   0  0  0  0  0  0
   -1.6125   -5.8977   23.3333 H   0  0  0  0  0  0
  1  2  1  0  0  0
  1 33  1  0  0  0
  1 34  1  0  0  0
  1 35  1  0  0  0
  2  3  2  0  0  0
  2  7  1  0  0  0
  3  4  1  0  0  0
  3 36  1  0  0  0
  4  5  2  0  0  0
  4 37  1  0  0  0
  5  6  1  0  0  0
  6  7  2  0  0  0
  6 38  1  0  0  0
  7  8  1  0  0  0
  8  9  1  0  0  0
  8 39  1  0  0  0
  9 10  2  0  0  0
  9 11  1  0  0  0
 11 12  1  0  0  0
 11 40  1  0  0  0
 11 41  1  0  0  0
 12 13  2  0  0  0
 12 32  1  0  0  0
 13 14  1  0  0  0
 13 42  1  0  0  0
 14 15  1  0  0  0
 14 16  2  0  0  0
 16 17  1  0  0  0
 16 43  1  0  0  0
 17 18  1  0  0  0
 17 32  2  0  0  0
 18 19  1  0  0  0
 19 20  1  0  0  0
 19 44  1  0  0  0
 19 45  1  0  0  0
 20 21  2  0  0  0
 20 31  1  0  0  0
 21 22  1  0  0  0
 21 46  1  0  0  0
 22 23  1  0  0  0
 22 30  2  0  0  0
 23 24  2  0  0  0
 23 29  1  0  0  0
 24 25  1  0  0  0
 24 47  1  0  0  0
 25 26  2  0  0  0
 25 48  1  0  0  0
 26 27  1  0  0  0
 26 28  1  0  0  0
 28 29  2  0  0  0
 28 49  1  0  0  0
 29 50  1  0  0  0
 30 31  1  0  0  0
 32 51  1  0  0  0
M  END
> <s_m_entry_id>
1521

> <s_m_entry_name>
Compounds-withfrags-for-validation-docking.1849

> <s_m_Source_Path>
/home/rodolpho/data/melina/maestro/glide-dock_XP_5RGK_M-PRO_VALIDATION

> <s_m_Source_File>
glide-dock_XP_5RGK_M-PRO_VALIDATION_pv.maegz

> <i_m_Source_File_Index>
1521

> <CID>
CHO-MSK-6e55470f-19

> <Potency>
99.5

> <pIC50>
4.00218

> <Source>
Postera

> <smiles>
Cc1ccncc1NC(=O)Cc1cc(Cl)cc(OCc2cc(-c3ccc(Cl)cc3)no2)c1

> <Outcome>
Inactive

> <StandardizerResult>
Clear Stereo (ID: ClearStereo)
Wedge Clean (ID: WedgeClean)
Mesomerize (ID: Mesomerize)
Tautomerize (ID: Tautomerize)
Aromatize (ID: Aromatize)
Add Explicit Hydrogens (ID: AddExplicitH)
Neutralize (ID: Neutralize)
Clean 2D (ID: Clean2D)

> <chiral flag>
0

> <version>
0

> <i_lp_mmshare_version>
41011

> <i_f3d_flags>
0

> <s_epik_input>
W0NIM11jMVtjSF1bY0hdbltjSF1jMVtOSF1DKD1PKVtDSDJdYzJbY0hdYyhDbClbY0hdYyhbY0hdMilPW0NIMl1jM1tjSF1jKG5vMyktYzRbY0hdW2NIXWMoQ2wpW2NIXVtjSF00

> <s_epik_cmdline>
J2VwaWtfcHl0aG9uJywgJy1waHQnLCAnMC41JywgJy1waCcsICc3LjQnLCAnLXRuJywgJzgnLCAnLW1hJywgJzIwMCcsICctaW1hZScsICc8aW5maWxlLm1hZT4nLCAnLW9tYWUnLCAnPG91dGZpbGUubWFlPic=

> <r_lp_tautomer_probability>
1.0

> <r_epik_Ionization_Penalty>
0.0032

> <r_epik_Ionization_Penalty_Charging>
0.0

> <r_epik_Ionization_Penalty_Neutral>
0.0032

> <r_epik_State_Penalty>
0.0

> <r_epik_Charging_Adjusted_Penalty>
0.0

> <i_epik_Tot_Q>
0

> <i_epik_Tot_abs_Q>
0

> <s_lp_Force_Field>
OPLS3

> <r_lp_Energy>
39.2319

> <b_lp_Chiralities_Consistent>
1

> <s_lp_Variant>
ligprep_COVID_compounds-withfrags-smallmolecules-forvalidation.maegz:68-1

> <i_glide_original_lignum>
242

> <s_i_glide_gridfile>
glide-grid_5RGK_M-PRO_COVID

> <i_i_glide_lignum>
242

> <r_i_docking_score>
-4.22387409081266

> <r_i_glide_ligand_efficiency>
-0.131996065337896

> <r_i_glide_ligand_efficiency_sa>
-0.419061385461959

> <r_i_glide_ligand_efficiency_ln>
-0.945840547392103

> <r_glide_XP_GScore>
-4.22387409081266

> <r_i_glide_gscore>
-4.22387409081266

> <r_i_glide_evdw>
-39.8573265075684

> <r_i_glide_ecoul>
-3.90395784378052

> <r_i_glide_energy>
-43.7612843513489

> <r_i_glide_einternal>
7.16621875762939

> <r_i_glide_emodel>
-58.1830316727703

> <r_glide_XP_HBond>
-1.04556648393359

> <i_i_glide_confnum>
1

> <i_i_glide_posenum>
34

> <r_i_glide_eff_state_penalty>
0.0

> <i_glide_XP_PoseRank>
1

> <MW>
467.08

> <cLogP>
6.11

> <TPSA>
77.25

> <Rotatable Bonds>
7

> <Fraction sp3>
0.12

> <HBA>
5

> <HBD>
1

> <s_epik_Chemistry_Notes>


> <Structure ID>


> <Submission Fragments>


$$$$
ligprep_COVID_compounds-withfrags-smallmolecules-forvalidation.maegz:34
                    3D
 Structure written by MMmdl.
 65 69  0  0  1  0            999 V2000
    5.6667    2.7851   24.1707 O   0  0  0  0  0  0
    6.3872    2.0374   23.5082 C   0  0  0  0  0  0
    7.5419    2.4737   22.9707 N   0  0  0  0  0  0
    8.0333    3.8493   23.0727 C   0  0  0  0  0  0
    9.1417    4.0214   24.1332 C   0  0  0  0  0  0
   10.4738    3.3963   23.7463 C   0  0  0  0  0  0
   10.8051    2.0959   24.1713 C   0  0  0  0  0  0
   12.0125    1.4947   23.7704 C   0  0  0  0  0  0
   12.9137    2.2096   22.9602 C   0  0  0  0  0  0
   12.6158    3.5295   22.5706 C   0  0  0  0  0  0
   13.4942    4.2293   21.8136 F   0  0  0  0  0  0
   11.4022    4.1207   22.9709 C   0  0  0  0  0  0
    5.8922    0.5724   23.2869 C   0  0  1  0  0  0
    5.8716    0.2777   21.8001 C   0  0  0  0  0  0
    6.2546   -0.9657   21.2400 C   0  0  0  0  0  0
    6.1016   -1.2086   19.8633 C   0  0  0  0  0  0
    5.5758   -0.1938   19.0522 C   0  0  0  0  0  0
    5.2009    0.9981   19.5429 N   0  0  0  0  0  0
    5.3406    1.2132   20.8683 C   0  0  0  0  0  0
    6.4989   -0.5103   24.1460 N   0  0  0  0  0  0
    7.8355   -0.7633   24.1890 C   0  0  0  0  0  0
    8.6826    0.0133   23.7707 O   0  0  0  0  0  0
    8.3136   -2.0787   24.6645 C   0  0  0  0  0  0
    8.7749   -2.4870   25.8864 C   0  0  0  0  0  0
    9.1654   -3.8487   25.7399 C   0  0  0  0  0  0
    8.9230   -4.1697   24.4351 C   0  0  0  0  0  0
    8.4033   -3.1026   23.7690 O   0  0  0  0  0  0
    5.5367   -1.4882   24.7275 C   0  0  1  0  0  0
    5.7149   -1.7910   26.2359 C   0  0  0  0  0  0
    4.1922   -1.9143   26.3595 C   0  0  1  0  0  0
    3.4399   -1.5335   27.6211 C   0  0  0  0  0  0
    4.0993   -1.4532   28.8665 C   0  0  0  0  0  0
    3.3802   -1.0991   30.0249 C   0  0  0  0  0  0
    4.0136   -1.0162   31.2170 F   0  0  0  0  0  0
    2.0006   -0.8303   29.9452 C   0  0  0  0  0  0
    1.3389   -0.9130   28.7064 C   0  0  0  0  0  0
    0.0119   -0.6567   28.6282 F   0  0  0  0  0  0
    2.0570   -1.2637   27.5476 C   0  0  0  0  0  0
    4.1062   -1.0139   25.1269 C   0  0  0  0  0  0
    8.0929    1.8355   22.4062 H   0  0  0  0  0  0
    8.3816    4.1657   22.0913 H   0  0  0  0  0  0
    7.2122    4.5270   23.3129 H   0  0  0  0  0  0
    9.3064    5.0858   24.3041 H   0  0  0  0  0  0
    8.8090    3.6144   25.0894 H   0  0  0  0  0  0
   10.1336    1.5635   24.8258 H   0  0  0  0  0  0
   12.2497    0.4929   24.0945 H   0  0  0  0  0  0
   13.8452    1.7570   22.6513 H   0  0  0  0  0  0
   11.1720    5.1258   22.6482 H   0  0  0  0  0  0
    4.8394    0.6576   23.5300 H   0  0  0  0  0  0
    6.6394   -1.7634   21.8562 H   0  0  0  0  0  0
    6.3746   -2.1627   19.4395 H   0  0  0  0  0  0
    5.4416   -0.3477   17.9913 H   0  0  0  0  0  0
    4.9841    2.1796   21.1977 H   0  0  0  0  0  0
    8.8309   -1.8766   26.7760 H   0  0  0  0  0  0
    9.5805   -4.5078   26.4891 H   0  0  0  0  0  0
    9.0639   -5.0622   23.8404 H   0  0  0  0  0  0
    5.5749   -2.4300   24.1791 H   0  0  0  0  0  0
    6.2175   -2.7271   26.4760 H   0  0  0  0  0  0
    6.1367   -0.9640   26.8047 H   0  0  0  0  0  0
    3.8934   -2.9293   26.0884 H   0  0  0  0  0  0
    5.1563   -1.6614   28.9447 H   0  0  0  0  0  0
    1.4514   -0.5614   30.8351 H   0  0  0  0  0  0
    1.5415   -1.3255   26.6008 H   0  0  0  0  0  0
    3.9749    0.0302   25.3939 H   0  0  0  0  0  0
    3.2810   -1.2892   24.4939 H   0  0  0  0  0  0
  1  2  2  0  0  0
  2  3  1  0  0  0
  2 13  1  0  0  0
  3  4  1  0  0  0
  3 40  1  0  0  0
  4  5  1  0  0  0
  4 41  1  0  0  0
  4 42  1  0  0  0
  5  6  1  0  0  0
  5 43  1  0  0  0
  5 44  1  0  0  0
  6  7  2  0  0  0
  6 12  1  0  0  0
  7  8  1  0  0  0
  7 45  1  0  0  0
  8  9  2  0  0  0
  8 46  1  0  0  0
  9 10  1  0  0  0
  9 47  1  0  0  0
 10 11  1  0  0  0
 10 12  2  0  0  0
 12 48  1  0  0  0
 13 14  1  0  0  0
 13 20  1  0  0  0
 13 49  1  0  0  0
 14 15  2  0  0  0
 14 19  1  0  0  0
 15 16  1  0  0  0
 15 50  1  0  0  0
 16 17  2  0  0  0
 16 51  1  0  0  0
 17 18  1  0  0  0
 17 52  1  0  0  0
 18 19  2  0  0  0
 19 53  1  0  0  0
 20 21  1  0  0  0
 20 28  1  0  0  0
 21 22  2  0  0  0
 21 23  1  0  0  0
 23 24  2  0  0  0
 23 27  1  0  0  0
 24 25  1  0  0  0
 24 54  1  0  0  0
 25 26  2  0  0  0
 25 55  1  0  0  0
 26 27  1  0  0  0
 26 56  1  0  0  0
 28 29  1  0  0  0
 28 39  1  0  0  0
 28 57  1  0  0  0
 29 30  1  0  0  0
 29 58  1  0  0  0
 29 59  1  0  0  0
 30 31  1  0  0  0
 30 39  1  0  0  0
 30 60  1  0  0  0
 31 32  2  0  0  0
 31 38  1  0  0  0
 32 33  1  0  0  0
 32 61  1  0  0  0
 33 34  1  0  0  0
 33 35  2  0  0  0
 35 36  1  0  0  0
 35 62  1  0  0  0
 36 37  1  0  0  0
 36 38  2  0  0  0
 38 63  1  0  0  0
 39 64  1  0  0  0
 39 65  1  0  0  0
M  END
> <s_m_entry_id>
1537

> <s_m_entry_name>
Compounds-withfrags-for-validation-docking.1883

> <s_m_Source_Path>
/home/rodolpho/data/melina/maestro/glide-dock_XP_5RGK_M-PRO_VALIDATION

> <s_m_Source_File>
glide-dock_XP_5RGK_M-PRO_VALIDATION_pv.maegz

> <i_m_Source_File_Index>
1537

> <CID>
ALP-POS-b0bc6a46-21

> <Potency>
99.5

> <pIC50>
4.00218

> <Source>
Postera

> <smiles>
O=C(NCCc1cccc(F)c1)C(c1cccnc1)N(C(=O)c1ccco1)[C@H]1C[C@H](c2cc(F)cc(F)c2)C1

> <Outcome>
Inactive

> <StandardizerResult>
Clear Stereo (ID: ClearStereo)
Wedge Clean (ID: WedgeClean)
Mesomerize (ID: Mesomerize)
Tautomerize (ID: Tautomerize)
Aromatize (ID: Aromatize)
Add Explicit Hydrogens (ID: AddExplicitH)
Neutralize (ID: Neutralize)
Clean 2D (ID: Clean2D)

> <chiral flag>
0

> <version>
0

> <i_lp_mmshare_version>
41011

> <i_f3d_flags>
0

> <s_epik_input>
RmMoW2NIXTEpW2NIXVtjSF1bY0hdYzFbQ0gyXVtDSDJdW05IXUMoPU8pW0NAQEhdKGMyW2NIXVtjSF1bY0hdbltjSF0yKU4oQyg9TyljM1tjSF1bY0hdW2NIXW8zKVtDQEhdNFtDSDJdW0NASF0oW0NIMl00KWM1W2NIXWMoRilbY0hdYyhGKVtjSF01

> <s_epik_cmdline>
J2VwaWtfcHl0aG9uJywgJy1waHQnLCAnMC41JywgJy1waCcsICc3LjQnLCAnLXRuJywgJzgnLCAnLW1hJywgJzIwMCcsICctaW1hZScsICc8aW5maWxlLm1hZT4nLCAnLW9tYWUnLCAnPG91dGZpbGUubWFlPic=

> <r_lp_tautomer_probability>
1.0

> <r_epik_Ionization_Penalty>
8.0E-4

> <r_epik_Ionization_Penalty_Charging>
0.0

> <r_epik_Ionization_Penalty_Neutral>
8.0E-4

> <r_epik_State_Penalty>
0.0

> <r_epik_Charging_Adjusted_Penalty>
0.0

> <i_epik_Tot_Q>
0

> <i_epik_Tot_abs_Q>
0

> <s_lp_Force_Field>
OPLS3

> <r_lp_Energy>
62.7443

> <b_lp_Chiralities_Consistent>
1

> <s_lp_Variant>
ligprep_COVID_compounds-withfrags-smallmolecules-forvalidation.maegz:34-1

> <i_glide_original_lignum>
169

> <s_i_glide_gridfile>
glide-grid_5RGK_M-PRO_COVID

> <i_i_glide_lignum>
169

> <r_i_docking_score>
-4.21120282570098

> <r_i_glide_ligand_efficiency>
-0.107979559633358

> <r_i_glide_ligand_efficiency_sa>
-0.3661815177931

> <r_i_glide_ligand_efficiency_ln>
-0.903001427931357

> <r_glide_XP_GScore>
-4.21120282570098

> <r_i_glide_gscore>
-4.21120282570098

> <r_i_glide_evdw>
-35.254997253418

> <r_i_glide_ecoul>
-8.23130702972412

> <r_i_glide_energy>
-43.4863042831421

> <r_i_glide_einternal>
5.86867952346802

> <r_i_glide_emodel>
-61.2578459324303

> <r_glide_XP_HBond>
-0.693599126857012

> <i_i_glide_confnum>
1

> <i_i_glide_posenum>
20

> <r_i_glide_eff_state_penalty>
0.0

> <i_glide_XP_PoseRank>
1

> <MW>
533.19

> <cLogP>
5.58

> <TPSA>
75.44

> <Rotatable Bonds>
9

> <Fraction sp3>
0.23

> <HBA>
4

> <HBD>
1

> <s_epik_Chemistry_Notes>


> <Structure ID>


> <Submission Fragments>


$$$$
ligprep_COVID_compounds-withfrags-smallmolecules-forvalidation.maegz:1
                    3D
 Structure written by MMmdl.
 43 45  0  0  1  0            999 V2000
    8.8774    2.9974   24.0260 C   0  0  0  0  0  0
    7.4790    3.0483   23.3923 C   0  0  0  0  0  0
    6.4697    3.7547   24.3024 C   0  0  0  0  0  0
    6.9768    1.7453   22.9688 N   0  0  0  0  0  0
    7.2185    0.4144   23.2830 C   0  0  0  0  0  0
    7.9919    0.0152   24.2953 N   0  0  0  0  0  0
    7.9576   -1.3572   24.1715 C   0  0  0  0  0  0
    8.5937   -2.3626   24.9317 C   0  0  0  0  0  0
    8.4870   -3.7212   24.5640 C   0  0  0  0  0  0
    7.7266   -4.0905   23.4301 C   0  0  0  0  0  0
    7.0774   -3.0977   22.6718 C   0  0  0  0  0  0
    7.1737   -1.7471   23.0515 C   0  0  0  0  0  0
    6.6801   -0.5688   22.5151 N   0  0  0  0  0  0
    5.6912   -0.5253   21.3822 C   0  0  2  0  0  0
    6.2451   -0.6129   19.9391 C   0  0  2  0  0  0
    7.5749   -0.1633   19.7708 O   0  0  0  0  0  0
    5.2412    0.2608   19.1954 C   0  0  2  0  0  0
    5.7328    0.8035   17.9782 O   0  0  0  0  0  0
    4.8503    1.3172   20.2395 C   0  0  1  0  0  0
    3.4151    1.8373   20.0778 C   0  0  0  0  0  0
    3.1749    2.9043   20.9709 O   0  0  0  0  0  0
    4.9093    0.6206   21.4801 O   0  0  0  0  0  0
    7.5757   -5.7426   22.9455 Cl  0  0  0  0  0  0
    9.3119   -4.9111   25.5064 Cl  0  0  0  0  0  0
    9.2531    4.0049   24.2052 H   0  0  0  0  0  0
    9.5907    2.4945   23.3732 H   0  0  0  0  0  0
    8.8658    2.4797   24.9867 H   0  0  0  0  0  0
    7.5749    3.6376   22.4784 H   0  0  0  0  0  0
    6.7909    4.7734   24.5208 H   0  0  0  0  0  0
    6.3571    3.2300   25.2506 H   0  0  0  0  0  0
    5.4905    3.8186   23.8248 H   0  0  0  0  0  0
    6.3295    1.8318   22.1944 H   0  0  0  0  0  0
    9.1732   -2.0816   25.7938 H   0  0  0  0  0  0
    6.5056   -3.3628   21.7962 H   0  0  0  0  0  0
    5.0481   -1.3636   21.6133 H   0  0  0  0  0  0
    6.1990   -1.6494   19.5989 H   0  0  0  0  0  0
    8.1308   -0.6315   20.3875 H   0  0  0  0  0  0
    4.3751   -0.3534   18.9709 H   0  0  0  0  0  0
    5.0587    1.3571   17.6070 H   0  0  0  0  0  0
    5.5803    2.1272   20.2478 H   0  0  0  0  0  0
    3.2640    2.2104   19.0638 H   0  0  0  0  0  0
    2.6935    1.0421   20.2554 H   0  0  0  0  0  0
    3.7938    3.6000   20.7498 H   0  0  0  0  0  0
  1  2  1  0  0  0
  1 25  1  0  0  0
  1 26  1  0  0  0
  1 27  1  0  0  0
  2  3  1  0  0  0
  2  4  1  0  0  0
  2 28  1  0  0  0
  3 29  1  0  0  0
  3 30  1  0  0  0
  3 31  1  0  0  0
  4  5  1  0  0  0
  4 32  1  0  0  0
  5  6  2  0  0  0
  5 13  1  0  0  0
  6  7  1  0  0  0
  7  8  2  0  0  0
  7 12  1  0  0  0
  8  9  1  0  0  0
  8 33  1  0  0  0
  9 10  2  0  0  0
  9 24  1  0  0  0
 10 11  1  0  0  0
 10 23  1  0  0  0
 11 12  2  0  0  0
 11 34  1  0  0  0
 12 13  1  0  0  0
 13 14  1  0  0  0
 14 15  1  0  0  0
 14 22  1  0  0  0
 14 35  1  0  0  0
 15 16  1  0  0  0
 15 17  1  0  0  0
 15 36  1  0  0  0
 16 37  1  0  0  0
 17 18  1  0  0  0
 17 19  1  0  0  0
 17 38  1  0  0  0
 18 39  1  0  0  0
 19 20  1  0  0  0
 19 22  1  0  0  0
 19 40  1  0  0  0
 20 21  1  0  0  0
 20 41  1  0  0  0
 20 42  1  0  0  0
 21 43  1  0  0  0
M  END
> <s_m_entry_id>
1565

> <s_m_entry_name>
Compounds-withfrags-for-validation-docking.1916

> <s_m_Source_Path>
/home/rodolpho/data/melina/maestro/glide-dock_XP_5RGK_M-PRO_VALIDATION

> <s_m_Source_File>
glide-dock_XP_5RGK_M-PRO_VALIDATION_pv.maegz

> <i_m_Source_File_Index>
1565

> <CID>
Maribavir

> <pIC50>
4.30103

> <Source>
https://doi.org/10.1101/2020.03.23.004580

> <smiles>
C(C(C([H])([H])[H])(N(C1=NC2=C(C(=C(C([H])=C2N1C1(C(O[H])([H])C(O[H])([H])C(C(O[H])([H])[H])([H])O1)[H])Cl)Cl)[H])[H])[H])([H])([H])[H]

> <Outcome>
Inactive

> <StandardizerResult>
Clear Stereo (ID: ClearStereo)
Wedge Clean (ID: WedgeClean)
Mesomerize (ID: Mesomerize)
Tautomerize (ID: Tautomerize)
Aromatize (ID: Aromatize)
Add Explicit Hydrogens (ID: AddExplicitH)
Neutralize (ID: Neutralize)
Clean 2D (ID: Clean2D)

> <chiral flag>
0

> <version>
0

> <i_lp_mmshare_version>
41011

> <i_f3d_flags>
0

> <s_epik_input>
W2NIXTFjKENsKWMoQ2wpW2NIXWMoYzEyKW4oYyhuMilbTkhdW0NIXShbQ0gzXSlbQ0gzXSlbQ0BASF0zW0NASF0oW09IXSlbQ0BIXShbT0hdKVtDQEhdKE8zKVtDSDJdW09IXQ==

> <s_epik_cmdline>
J2VwaWtfcHl0aG9uJywgJy1waHQnLCAnMC41JywgJy1waCcsICc3LjQnLCAnLXRuJywgJzgnLCAnLW1hJywgJzIwMCcsICctaW1hZScsICc8aW5maWxlLm1hZT4nLCAnLW9tYWUnLCAnPG91dGZpbGUubWFlPic=

> <r_epik_Ionization_Penalty>
0.01

> <r_epik_Ionization_Penalty_Charging>
0.0

> <r_epik_Ionization_Penalty_Neutral>
0.01

> <r_epik_State_Penalty>
0.0076

> <r_epik_Charging_Adjusted_Penalty>
0.00760364

> <i_epik_Tot_Q>
0

> <i_epik_Tot_abs_Q>
0

> <s_lp_Force_Field>
OPLS3

> <r_lp_Energy>
14.0589

> <b_lp_Chiralities_Consistent>
1

> <s_lp_Variant>
ligprep_COVID_compounds-withfrags-smallmolecules-forvalidation.maegz:1-6

> <i_glide_original_lignum>
6

> <s_i_glide_gridfile>
glide-grid_5RGK_M-PRO_COVID

> <i_i_glide_lignum>
6

> <r_i_docking_score>
-4.19346126570428

> <r_i_glide_ligand_efficiency>
-0.174727552737678

> <r_i_glide_ligand_efficiency_sa>
-0.504001475179649

> <r_i_glide_ligand_efficiency_ln>
-1.00368770628191

> <r_glide_XP_GScore>
-4.20106490570428

> <r_i_glide_gscore>
-4.20106490570428

> <r_i_glide_evdw>
-28.3056259155273

> <r_i_glide_ecoul>
-10.976095199585

> <r_i_glide_energy>
-39.2817211151123

> <r_i_glide_einternal>
4.85618448257446

> <r_i_glide_emodel>
-47.913840022077

> <r_glide_XP_HBond>
-1.98390638650035

> <i_i_glide_confnum>
1

> <i_i_glide_posenum>
45

> <r_i_glide_eff_state_penalty>
0.00760364

> <i_glide_XP_PoseRank>
1

> <s_epik_Chemistry_Notes>
This compound contains an acetal/aminal-like group ( X-CH(R)-Y where X, Y are N, S, or O) that may be acid/base labile, releasing an aldehyde.

> <Potency>
50.0

> <r_lp_tautomer_probability>


> <MW>


> <cLogP>


> <TPSA>


> <Rotatable Bonds>


> <Fraction sp3>


> <HBA>


> <HBD>


> <Structure ID>


> <Submission Fragments>


$$$$
ligprep_COVID_compounds-withfrags-smallmolecules-forvalidation.maegz:47
                    3D
 Structure written by MMmdl.
 76 79  0  0  1  0            999 V2000
    1.5314    4.2567   18.8581 C   0  0  0  0  0  0
    1.7573    4.1373   20.3759 C   0  0  2  0  0  0
    1.6471    2.6710   20.8491 C   0  0  0  0  0  0
    1.8630    2.5025   22.3717 C   0  0  1  0  0  0
    3.3510    2.5477   22.7952 C   0  0  0  0  0  0
    4.1709    1.3150   22.3549 C   0  0  0  0  0  0
    5.5708    1.3428   22.8240 N   0  0  0  0  0  0
    6.0855    2.2984   23.6673 C   0  0  0  0  0  0
    5.3897    3.1828   24.1709 O   0  0  0  0  0  0
    7.5062    2.3208   23.9470 C   0  0  0  0  0  0
    8.4999    3.2890   23.7936 C   0  0  0  0  0  0
    9.7185    2.6836   24.1016 C   0  0  0  0  0  0
    9.4352    1.3567   24.3660 C   0  0  0  0  0  0
    8.1030    1.1309   24.2381 O   0  0  0  0  0  0
    6.4141    0.2731   22.1990 C   0  0  1  0  0  0
    6.4755   -1.0047   23.0848 C   0  0  0  0  0  0
    6.7749   -2.0927   22.5914 O   0  0  0  0  0  0
    6.2158   -0.8252   24.3911 N   0  0  0  0  0  0
    5.7008   -1.8604   25.2823 C   0  0  0  0  0  0
    6.6763   -2.2384   26.4140 C   0  0  0  0  0  0
    7.8428   -3.0787   25.9173 C   0  0  0  0  0  0
    8.1423   -4.2995   26.5311 C   0  0  0  0  0  0
    9.2172   -5.0672   26.0809 C   0  0  0  0  0  0
    9.9991   -4.6172   25.0165 C   0  0  0  0  0  0
    9.7058   -3.3999   24.4013 C   0  0  0  0  0  0
   10.4642   -2.9631   23.3706 F   0  0  0  0  0  0
    8.6302   -2.6321   24.8505 C   0  0  0  0  0  0
    6.0940    0.0555   20.7166 C   0  0  0  0  0  0
    5.5917    1.1112   19.9361 C   0  0  0  0  0  0
    5.3210    0.9257   18.5800 C   0  0  0  0  0  0
    5.5737   -0.3241   18.0186 C   0  0  0  0  0  0
    6.0769   -1.3614   18.7314 N   0  0  0  0  0  0
    6.3312   -1.1609   20.0496 C   0  0  0  0  0  0
    0.9551    3.4752   23.1737 C   0  0  0  0  0  0
    0.9307    4.9696   22.7152 C   0  0  0  0  0  0
   -0.3169    5.6327   23.3473 C   0  0  0  0  0  0
    2.2160    5.7132   23.1581 C   0  0  0  0  0  0
    0.7814    5.0431   21.1663 C   0  0  0  0  0  0
    0.5312    3.9256   18.5750 H   0  0  0  0  0  0
    2.2495    3.6518   18.3034 H   0  0  0  0  0  0
    1.6461    5.2876   18.5215 H   0  0  0  0  0  0
    2.7750    4.4797   20.5636 H   0  0  0  0  0  0
    0.6545    2.2938   20.5957 H   0  0  0  0  0  0
    2.3443    2.0426   20.2940 H   0  0  0  0  0  0
    1.5175    1.4995   22.6303 H   0  0  0  0  0  0
    3.8267    3.4314   22.3825 H   0  0  0  0  0  0
    3.4194    2.6571   23.8777 H   0  0  0  0  0  0
    3.6706    0.3990   22.6656 H   0  0  0  0  0  0
    4.1712    1.2601   21.2658 H   0  0  0  0  0  0
    8.3733    4.3169   23.4937 H   0  0  0  0  0  0
   10.6922    3.1507   24.1035 H   0  0  0  0  0  0
   10.0430    0.5022   24.6248 H   0  0  0  0  0  0
    7.4403    0.6453   22.1941 H   0  0  0  0  0  0
    6.3759    0.0839   24.8003 H   0  0  0  0  0  0
    4.7725   -1.4854   25.7152 H   0  0  0  0  0  0
    5.4236   -2.7460   24.7062 H   0  0  0  0  0  0
    7.0667   -1.3401   26.8953 H   0  0  0  0  0  0
    6.1499   -2.7855   27.1978 H   0  0  0  0  0  0
    7.5439   -4.6538   27.3584 H   0  0  0  0  0  0
    9.4443   -6.0096   26.5571 H   0  0  0  0  0  0
   10.8315   -5.2114   24.6693 H   0  0  0  0  0  0
    8.4111   -1.6896   24.3698 H   0  0  0  0  0  0
    5.4077    2.0808   20.3755 H   0  0  0  0  0  0
    4.9273    1.7324   17.9795 H   0  0  0  0  0  0
    5.3772   -0.5082   16.9727 H   0  0  0  0  0  0
    6.7404   -2.0183   20.5622 H   0  0  0  0  0  0
   -0.0594    3.0792   23.0936 H   0  0  0  0  0  0
    1.1875    3.4107   24.2381 H   0  0  0  0  0  0
   -0.4045    6.6792   23.0517 H   0  0  0  0  0  0
   -0.2702    5.6082   24.4371 H   0  0  0  0  0  0
   -1.2421    5.1361   23.0511 H   0  0  0  0  0  0
    2.1186    6.7872   22.9948 H   0  0  0  0  0  0
    3.1059    5.4088   22.6149 H   0  0  0  0  0  0
    2.4136    5.5698   24.2211 H   0  0  0  0  0  0
    0.8927    6.0773   20.8353 H   0  0  0  0  0  0
   -0.2365    4.7599   20.8892 H   0  0  0  0  0  0
  1  2  1  0  0  0
  1 39  1  0  0  0
  1 40  1  0  0  0
  1 41  1  0  0  0
  2  3  1  0  0  0
  2 38  1  0  0  0
  2 42  1  0  0  0
  3  4  1  0  0  0
  3 43  1  0  0  0
  3 44  1  0  0  0
  4  5  1  0  0  0
  4 34  1  0  0  0
  4 45  1  0  0  0
  5  6  1  0  0  0
  5 46  1  0  0  0
  5 47  1  0  0  0
  6  7  1  0  0  0
  6 48  1  0  0  0
  6 49  1  0  0  0
  7  8  1  0  0  0
  7 15  1  0  0  0
  8  9  2  0  0  0
  8 10  1  0  0  0
 10 11  2  0  0  0
 10 14  1  0  0  0
 11 12  1  0  0  0
 11 50  1  0  0  0
 12 13  2  0  0  0
 12 51  1  0  0  0
 13 14  1  0  0  0
 13 52  1  0  0  0
 15 16  1  0  0  0
 15 28  1  0  0  0
 15 53  1  0  0  0
 16 17  2  0  0  0
 16 18  1  0  0  0
 18 19  1  0  0  0
 18 54  1  0  0  0
 19 20  1  0  0  0
 19 55  1  0  0  0
 19 56  1  0  0  0
 20 21  1  0  0  0
 20 57  1  0  0  0
 20 58  1  0  0  0
 21 22  2  0  0  0
 21 27  1  0  0  0
 22 23  1  0  0  0
 22 59  1  0  0  0
 23 24  2  0  0  0
 23 60  1  0  0  0
 24 25  1  0  0  0
 24 61  1  0  0  0
 25 26  1  0  0  0
 25 27  2  0  0  0
 27 62  1  0  0  0
 28 29  2  0  0  0
 28 33  1  0  0  0
 29 30  1  0  0  0
 29 63  1  0  0  0
 30 31  2  0  0  0
 30 64  1  0  0  0
 31 32  1  0  0  0
 31 65  1  0  0  0
 32 33  2  0  0  0
 33 66  1  0  0  0
 34 35  1  0  0  0
 34 67  1  0  0  0
 34 68  1  0  0  0
 35 36  1  0  0  0
 35 37  1  0  0  0
 35 38  1  0  0  0
 36 69  1  0  0  0
 36 70  1  0  0  0
 36 71  1  0  0  0
 37 72  1  0  0  0
 37 73  1  0  0  0
 37 74  1  0  0  0
 38 75  1  0  0  0
 38 76  1  0  0  0
M  END
> <s_m_entry_id>
1567

> <s_m_entry_name>
Compounds-withfrags-for-validation-docking.1870

> <s_m_Source_Path>
/home/rodolpho/data/melina/maestro/glide-dock_XP_5RGK_M-PRO_VALIDATION

> <s_m_Source_File>
glide-dock_XP_5RGK_M-PRO_VALIDATION_pv.maegz

> <i_m_Source_File_Index>
1567

> <CID>
ALP-POS-b0bc6a46-1

> <Potency>
99.5

> <pIC50>
4.00218

> <Source>
Postera

> <smiles>
CC1CC(CCN(C(=O)c2ccco2)C(C(=O)NCCc2cccc(F)c2)c2cccnc2)CC(C)(C)C1

> <Outcome>
Inactive

> <StandardizerResult>
Clear Stereo (ID: ClearStereo)
Wedge Clean (ID: WedgeClean)
Mesomerize (ID: Mesomerize)
Tautomerize (ID: Tautomerize)
Aromatize (ID: Aromatize)
Add Explicit Hydrogens (ID: AddExplicitH)
Neutralize (ID: Neutralize)
Clean 2D (ID: Clean2D)

> <chiral flag>
0

> <version>
0

> <i_lp_mmshare_version>
41011

> <i_f3d_flags>
0

> <s_epik_input>
W0NIM11bQ0BASF0oW0NIMl0xKVtDSDJdW0NASF0oW0NIMl1DMShbQ0gzXSlbQ0gzXSlbQ0gyXVtDSDJdTihDKD1PKWMyW2NIXVtjSF1bY0hdbzIpW0NASF0oYzNbY0hdW2NIXVtjSF1uW2NIXTMpQyg9TylbTkhdW0NIMl1bQ0gyXWM0W2NIXVtjSF1bY0hdYyhGKVtjSF00

> <s_epik_cmdline>
J2VwaWtfcHl0aG9uJywgJy1waHQnLCAnMC41JywgJy1waCcsICc3LjQnLCAnLXRuJywgJzgnLCAnLW1hJywgJzIwMCcsICctaW1hZScsICc8aW5maWxlLm1hZT4nLCAnLW9tYWUnLCAnPG91dGZpbGUubWFlPic=

> <r_lp_tautomer_probability>
1.0

> <r_epik_Ionization_Penalty>
8.0E-4

> <r_epik_Ionization_Penalty_Charging>
0.0

> <r_epik_Ionization_Penalty_Neutral>
8.0E-4

> <r_epik_State_Penalty>
0.0

> <r_epik_Charging_Adjusted_Penalty>
0.0

> <i_epik_Tot_Q>
0

> <i_epik_Tot_abs_Q>
0

> <s_lp_Force_Field>
OPLS3

> <r_lp_Energy>
59.8915

> <b_lp_Chiralities_Consistent>
1

> <s_lp_Variant>
ligprep_COVID_compounds-withfrags-smallmolecules-forvalidation.maegz:47-1

> <i_glide_original_lignum>
205

> <s_i_glide_gridfile>
glide-grid_5RGK_M-PRO_COVID

> <i_i_glide_lignum>
205

> <r_i_docking_score>
-4.19191992685627

> <r_i_glide_ligand_efficiency>
-0.110313682285691

> <r_i_glide_ligand_efficiency_sa>
-0.370871886428236

> <r_i_glide_ligand_efficiency_ln>
-0.903901250020892

> <r_glide_XP_GScore>
-4.19191992685627

> <r_i_glide_gscore>
-4.19191992685627

> <r_i_glide_evdw>
-37.6165504455566

> <r_i_glide_ecoul>
-6.84339714050293

> <r_i_glide_energy>
-44.4599475860596

> <r_i_glide_einternal>
8.65055084228516

> <r_i_glide_emodel>
-58.9192550669043

> <r_glide_XP_HBond>
-0.477997933823626

> <i_i_glide_confnum>
1

> <i_i_glide_posenum>
25

> <r_i_glide_eff_state_penalty>
0.0

> <i_glide_XP_PoseRank>
1

> <MW>
519.29

> <cLogP>
6.21

> <TPSA>
75.44

> <Rotatable Bonds>
10

> <Fraction sp3>
0.45

> <HBA>
4

> <HBD>
1

> <s_epik_Chemistry_Notes>


> <Structure ID>


> <Submission Fragments>


$$$$
ligprep_COVID_compounds-withfrags-smallmolecules-forvalidation.maegz:74
                    3D
 Structure written by MMmdl.
 50 53  0  0  1  0            999 V2000
    3.6408    5.7024   24.8642 C   0  0  0  0  0  0
    4.9951    5.2846   24.9320 O   0  0  0  0  0  0
    5.3210    4.0630   24.3828 C   0  0  0  0  0  0
    6.6895    3.7433   24.2973 C   0  0  0  0  0  0
    7.1090    2.5153   23.7525 C   0  0  0  0  0  0
    6.1672    1.5673   23.2956 C   0  0  0  0  0  0
    6.6738    0.2138   22.7872 C   0  0  2  0  0  0
    5.7408   -0.5784   21.8312 C   0  0  0  0  0  0
    5.8430   -0.1345   20.3995 C   0  0  0  0  0  0
    6.3757   -0.9171   19.3425 C   0  0  0  0  0  0
    6.3903   -0.2994   18.1790 N   0  0  0  0  0  0
    5.8480    0.8988   18.4510 N   0  0  0  0  0  0
    5.7151    1.8362   17.3703 C   0  0  0  0  0  0
    5.5046    1.0367   19.7823 C   0  0  0  0  0  0
    7.1757   -0.6409   23.9639 C   0  0  0  0  0  0
    8.3378   -0.5060   24.3515 O   0  0  0  0  0  0
    6.2953   -1.4746   24.5433 N   0  0  0  0  0  0
    6.5911   -2.5183   25.4516 C   0  0  0  0  0  0
    5.7238   -2.9508   26.4159 C   0  0  0  0  0  0
    6.3099   -4.0346   27.0494 N   0  0  0  0  0  0
    7.5391   -4.3363   26.4860 C   0  0  0  0  0  0
    8.4723   -5.3514   26.7541 C   0  0  0  0  0  0
    9.6505   -5.4268   25.9910 C   0  0  0  0  0  0
    9.8877   -4.4952   24.9702 C   0  0  0  0  0  0
    8.9389   -3.4957   24.6908 C   0  0  0  0  0  0
    7.7483   -3.3764   25.4505 C   0  0  0  0  0  0
    4.7911    1.8899   23.3698 C   0  0  0  0  0  0
    4.3727    3.1245   23.9044 C   0  0  0  0  0  0
    3.5549    6.7111   25.2678 H   0  0  0  0  0  0
    2.9927    5.0525   25.4546 H   0  0  0  0  0  0
    3.2857    5.7305   23.8328 H   0  0  0  0  0  0
    7.4256    4.4512   24.6470 H   0  0  0  0  0  0
    8.1653    2.2950   23.7029 H   0  0  0  0  0  0
    7.5739    0.4283   22.2100 H   0  0  0  0  0  0
    6.0250   -1.6323   21.8636 H   0  0  0  0  0  0
    4.7088   -0.5802   22.1723 H   0  0  0  0  0  0
    6.7713   -1.9131   19.4080 H   0  0  0  0  0  0
    5.1748    2.7258   17.6961 H   0  0  0  0  0  0
    5.1740    1.3618   16.5707 H   0  0  0  0  0  0
    6.6949    2.0893   16.9704 H   0  0  0  0  0  0
    5.0732    1.9502   20.1698 H   0  0  0  0  0  0
    5.3308   -1.3985   24.2556 H   0  0  0  0  0  0
    4.7497   -2.5831   26.7029 H   0  0  0  0  0  0
    5.8692   -4.5434   27.8025 H   0  0  0  0  0  0
    8.2888   -6.0886   27.5238 H   0  0  0  0  0  0
   10.3669   -6.2154   26.1709 H   0  0  0  0  0  0
   10.7915   -4.5653   24.3808 H   0  0  0  0  0  0
    9.1248   -2.8154   23.8768 H   0  0  0  0  0  0
    4.0299    1.2078   23.0295 H   0  0  0  0  0  0
    3.3133    3.3276   23.9373 H   0  0  0  0  0  0
  1  2  1  0  0  0
  1 29  1  0  0  0
  1 30  1  0  0  0
  1 31  1  0  0  0
  2  3  1  0  0  0
  3  4  2  0  0  0
  3 28  1  0  0  0
  4  5  1  0  0  0
  4 32  1  0  0  0
  5  6  2  0  0  0
  5 33  1  0  0  0
  6  7  1  0  0  0
  6 27  1  0  0  0
  7  8  1  0  0  0
  7 15  1  0  0  0
  7 34  1  0  0  0
  8  9  1  0  0  0
  8 35  1  0  0  0
  8 36  1  0  0  0
  9 10  1  0  0  0
  9 14  2  0  0  0
 10 11  2  0  0  0
 10 37  1  0  0  0
 11 12  1  0  0  0
 12 13  1  0  0  0
 12 14  1  0  0  0
 13 38  1  0  0  0
 13 39  1  0  0  0
 13 40  1  0  0  0
 14 41  1  0  0  0
 15 16  2  0  0  0
 15 17  1  0  0  0
 17 18  1  0  0  0
 17 42  1  0  0  0
 18 19  2  0  0  0
 18 26  1  0  0  0
 19 20  1  0  0  0
 19 43  1  0  0  0
 20 21  1  0  0  0
 20 44  1  0  0  0
 21 22  2  0  0  0
 21 26  1  0  0  0
 22 23  1  0  0  0
 22 45  1  0  0  0
 23 24  2  0  0  0
 23 46  1  0  0  0
 24 25  1  0  0  0
 24 47  1  0  0  0
 25 26  2  0  0  0
 25 48  1  0  0  0
 27 28  2  0  0  0
 27 49  1  0  0  0
 28 50  1  0  0  0
M  END
> <s_m_entry_id>
1588

> <s_m_entry_name>
Compounds-withfrags-for-validation-docking.1843

> <s_m_Source_Path>
/home/rodolpho/data/melina/maestro/glide-dock_XP_5RGK_M-PRO_VALIDATION

> <s_m_Source_File>
glide-dock_XP_5RGK_M-PRO_VALIDATION_pv.maegz

> <i_m_Source_File_Index>
1588

> <CID>
ALP-POS-a3de0cb1-14

> <Potency>
99.5

> <pIC50>
4.00218

> <Source>
Postera

> <smiles>
COc1ccc(C(Cc2cnn(C)c2)C(=O)Nc2c[nH]c3ccccc23)cc1

> <Outcome>
Inactive

> <StandardizerResult>
Clear Stereo (ID: ClearStereo)
Wedge Clean (ID: WedgeClean)
Mesomerize (ID: Mesomerize)
Tautomerize (ID: Tautomerize)
Aromatize (ID: Aromatize)
Add Explicit Hydrogens (ID: AddExplicitH)
Neutralize (ID: Neutralize)
Clean 2D (ID: Clean2D)

> <chiral flag>
0

> <version>
0

> <i_lp_mmshare_version>
41011

> <i_f3d_flags>
0

> <s_epik_input>
W0NIM11PYzFbY0hdW2NIXWMoW2NIXVtjSF0xKVtDQEhdKFtDSDJdYzJbY0hdbm4oW0NIM10pW2NIXTIpQyg9TylbTkhdYyhbY0hdW25IXTMpYyhjMzQpW2NIXVtjSF1bY0hdW2NIXTQ=

> <s_epik_cmdline>
J2VwaWtfcHl0aG9uJywgJy1waHQnLCAnMC41JywgJy1waCcsICc3LjQnLCAnLXRuJywgJzgnLCAnLW1hJywgJzIwMCcsICctaW1hZScsICc8aW5maWxlLm1hZT4nLCAnLW9tYWUnLCAnPG91dGZpbGUubWFlPic=

> <r_lp_tautomer_probability>
1.0

> <r_epik_Ionization_Penalty>
1.0E-4

> <r_epik_Ionization_Penalty_Charging>
0.0

> <r_epik_Ionization_Penalty_Neutral>
1.0E-4

> <r_epik_State_Penalty>
0.0

> <r_epik_Charging_Adjusted_Penalty>
0.0

> <i_epik_Tot_Q>
0

> <i_epik_Tot_abs_Q>
0

> <s_lp_Force_Field>
OPLS3

> <r_lp_Energy>
33.8653

> <b_lp_Chiralities_Consistent>
1

> <s_lp_Variant>
ligprep_COVID_compounds-withfrags-smallmolecules-forvalidation.maegz:74-2

> <i_glide_original_lignum>
249

> <s_i_glide_gridfile>
glide-grid_5RGK_M-PRO_COVID

> <i_i_glide_lignum>
249

> <r_i_docking_score>
-4.18262542215891

> <r_i_glide_ligand_efficiency>
-0.149379479362818

> <r_i_glide_ligand_efficiency_sa>
-0.453604079153828

> <r_i_glide_ligand_efficiency_ln>
-0.965472754652978

> <r_glide_XP_GScore>
-4.18262542215891

> <r_i_glide_gscore>
-4.18262542215891

> <r_i_glide_evdw>
-35.6406021118164

> <r_i_glide_ecoul>
-6.62105226516724

> <r_i_glide_energy>
-42.2616543769836

> <r_i_glide_einternal>
1.8545880317688

> <r_i_glide_emodel>
-53.3636215589044

> <r_glide_XP_HBond>
-0.7

> <i_i_glide_confnum>
1

> <i_i_glide_posenum>
19

> <r_i_glide_eff_state_penalty>
0.0

> <i_glide_XP_PoseRank>
1

> <MW>
374.17

> <cLogP>
3.88

> <TPSA>
71.94

> <Rotatable Bonds>
6

> <Fraction sp3>
0.18

> <HBA>
4

> <HBD>
2

> <s_epik_Chemistry_Notes>


> <Structure ID>


> <Submission Fragments>


$$$$
ligprep_COVID_compounds-withfrags-smallmolecules-forvalidation.maegz:87
                    3D
 Structure written by MMmdl.
 46 47  0  0  1  0            999 V2000
    7.1562    6.4063   23.7277 C   0  0  0  0  0  0
    8.5217    5.7448   23.7521 C   0  0  0  0  0  0
    9.6500    6.4644   24.1853 C   0  0  0  0  0  0
   10.9085    5.8353   24.1640 C   0  0  0  0  0  0
   11.0937    4.5642   23.7569 N   0  0  0  0  0  0
   10.0054    3.8626   23.3733 C   0  0  0  0  0  0
    8.6965    4.3977   23.3704 C   0  0  0  0  0  0
    7.5750    3.6269   22.9730 N   0  0  0  0  0  0
    7.2480    2.4246   23.4684 C   0  0  0  0  0  0
    7.9943    1.7622   24.1904 O   0  0  0  0  0  0
    5.8699    1.8800   23.0898 C   0  0  0  0  0  0
    6.0003    0.7182   22.1366 C   0  0  0  0  0  0
    5.8449    0.9259   20.7530 C   0  0  0  0  0  0
    5.9900   -0.1533   19.8698 C   0  0  0  0  0  0
    5.8499    0.1036   18.1704 Cl  0  0  0  0  0  0
    6.2705   -1.4359   20.3751 C   0  0  0  0  0  0
    6.4328   -1.6614   21.7600 C   0  0  0  0  0  0
    6.7820   -2.9603   22.1799 N   0  0  0  0  0  0
    6.7749   -3.3789   23.5876 C   0  0  0  0  0  0
    7.9530   -4.2940   23.9802 C   0  0  0  0  0  0
    7.7991   -4.7049   25.4556 C   0  0  0  0  0  0
    7.9596   -5.5716   23.1228 C   0  0  0  0  0  0
    9.2185   -3.5516   23.8571 C   0  0  0  0  0  0
   10.2108   -2.9637   23.7707 N   0  0  0  0  0  0
    6.2932   -0.5639   22.6385 C   0  0  0  0  0  0
    6.4493    5.8471   24.3417 H   0  0  0  0  0  0
    6.7732    6.4403   22.7063 H   0  0  0  0  0  0
    7.1993    7.4282   24.1051 H   0  0  0  0  0  0
    9.5616    7.4788   24.5365 H   0  0  0  0  0  0
   11.7914    6.3705   24.4839 H   0  0  0  0  0  0
   10.1916    2.8444   23.0691 H   0  0  0  0  0  0
    6.8716    4.0897   22.3836 H   0  0  0  0  0  0
    5.3521    1.5533   23.9883 H   0  0  0  0  0  0
    5.2406    2.6386   22.6331 H   0  0  0  0  0  0
    5.6290    1.9128   20.3686 H   0  0  0  0  0  0
    6.3747   -2.2521   19.6805 H   0  0  0  0  0  0
    6.6072   -3.6870   21.4982 H   0  0  0  0  0  0
    6.7590   -2.5363   24.2719 H   0  0  0  0  0  0
    5.8527   -3.9261   23.7759 H   0  0  0  0  0  0
    6.8719   -5.2534   25.6273 H   0  0  0  0  0  0
    7.7945   -3.8346   26.1118 H   0  0  0  0  0  0
    8.6212   -5.3486   25.7741 H   0  0  0  0  0  0
    7.0647   -6.1641   23.3119 H   0  0  0  0  0  0
    8.8251   -6.1953   23.3491 H   0  0  0  0  0  0
    7.9749   -5.3489   22.0586 H   0  0  0  0  0  0
    6.4264   -0.6600   23.7034 H   0  0  0  0  0  0
  1  2  1  0  0  0
  1 26  1  0  0  0
  1 27  1  0  0  0
  1 28  1  0  0  0
  2  3  2  0  0  0
  2  7  1  0  0  0
  3  4  1  0  0  0
  3 29  1  0  0  0
  4  5  2  0  0  0
  4 30  1  0  0  0
  5  6  1  0  0  0
  6  7  2  0  0  0
  6 31  1  0  0  0
  7  8  1  0  0  0
  8  9  1  0  0  0
  8 32  1  0  0  0
  9 10  2  0  0  0
  9 11  1  0  0  0
 11 12  1  0  0  0
 11 33  1  0  0  0
 11 34  1  0  0  0
 12 13  2  0  0  0
 12 25  1  0  0  0
 13 14  1  0  0  0
 13 35  1  0  0  0
 14 15  1  0  0  0
 14 16  2  0  0  0
 16 17  1  0  0  0
 16 36  1  0  0  0
 17 18  1  0  0  0
 17 25  2  0  0  0
 18 19  1  0  0  0
 18 37  1  0  0  0
 19 20  1  0  0  0
 19 38  1  0  0  0
 19 39  1  0  0  0
 20 21  1  0  0  0
 20 22  1  0  0  0
 20 23  1  0  0  0
 21 40  1  0  0  0
 21 41  1  0  0  0
 21 42  1  0  0  0
 22 43  1  0  0  0
 22 44  1  0  0  0
 22 45  1  0  0  0
 23 24  3  0  0  0
 25 46  1  0  0  0
M  END
> <s_m_entry_id>
1615

> <s_m_entry_name>
Compounds-withfrags-for-validation-docking.1830

> <s_m_Source_Path>
/home/rodolpho/data/melina/maestro/glide-dock_XP_5RGK_M-PRO_VALIDATION

> <s_m_Source_File>
glide-dock_XP_5RGK_M-PRO_VALIDATION_pv.maegz

> <i_m_Source_File_Index>
1615

> <CID>
MAT-POS-044491d2-7

> <Potency>
36.5317

> <pIC50>
4.43733

> <Source>
Postera

> <smiles>
Cc1ccncc1NC(=O)Cc1cc(Cl)cc(NCC(C)(C)C#N)c1

> <Outcome>
Inactive

> <StandardizerResult>
Clear Stereo (ID: ClearStereo)
Wedge Clean (ID: WedgeClean)
Mesomerize (ID: Mesomerize)
Tautomerize (ID: Tautomerize)
Aromatize (ID: Aromatize)
Add Explicit Hydrogens (ID: AddExplicitH)
Neutralize (ID: Neutralize)
Clean 2D (ID: Clean2D)

> <chiral flag>
0

> <version>
0

> <i_lp_mmshare_version>
41011

> <i_f3d_flags>
0

> <s_epik_input>
W0NIM11jMVtjSF1bY0hdbltjSF1jMVtOSF1DKD1PKVtDSDJdYzJbY0hdYyhDbClbY0hdYyhbY0hdMilbTkhdW0NIMl1DKFtDSDNdKShbQ0gzXSlDI04=

> <s_epik_cmdline>
J2VwaWtfcHl0aG9uJywgJy1waHQnLCAnMC41JywgJy1waCcsICc3LjQnLCAnLXRuJywgJzgnLCAnLW1hJywgJzIwMCcsICctaW1hZScsICc8aW5maWxlLm1hZT4nLCAnLW9tYWUnLCAnPG91dGZpbGUubWFlPic=

> <r_lp_tautomer_probability>
1.0

> <r_epik_Ionization_Penalty>
0.0032

> <r_epik_Ionization_Penalty_Charging>
0.0

> <r_epik_Ionization_Penalty_Neutral>
0.0032

> <r_epik_State_Penalty>
0.0

> <r_epik_Charging_Adjusted_Penalty>
0.0

> <i_epik_Tot_Q>
0

> <i_epik_Tot_abs_Q>
0

> <s_lp_Force_Field>
OPLS3

> <r_lp_Energy>
33.33

> <b_lp_Chiralities_Consistent>
1

> <s_lp_Variant>
ligprep_COVID_compounds-withfrags-smallmolecules-forvalidation.maegz:87-1

> <i_glide_original_lignum>
268

> <s_i_glide_gridfile>
glide-grid_5RGK_M-PRO_COVID

> <i_i_glide_lignum>
268

> <r_i_docking_score>
-4.16671529972316

> <r_i_glide_ligand_efficiency>
-0.166668611988927

> <r_i_glide_ligand_efficiency_sa>
-0.487341977336041

> <r_i_glide_ligand_efficiency_ln>
-0.987636392415824

> <r_glide_XP_GScore>
-4.16671529972316

> <r_i_glide_gscore>
-4.16671529972316

> <r_i_glide_evdw>
-29.7391357421875

> <r_i_glide_ecoul>
-9.38176345825195

> <r_i_glide_energy>
-39.1208992004395

> <r_i_glide_einternal>
2.48398041725159

> <r_i_glide_emodel>
-55.0254936218262

> <r_glide_XP_HBond>
-0.985079822235873

> <i_i_glide_confnum>
1

> <i_i_glide_posenum>
1

> <r_i_glide_eff_state_penalty>
0.0

> <i_glide_XP_PoseRank>
1

> <MW>
356.14

> <cLogP>
4.19

> <TPSA>
77.81

> <Rotatable Bonds>
6

> <Fraction sp3>
0.32

> <HBA>
4

> <HBD>
2

> <s_epik_Chemistry_Notes>


> <Structure ID>


> <Submission Fragments>


$$$$
ligprep_COVID_compounds-withfrags-smallmolecules-forvalidation.maegz:56
                    3D
 Structure written by MMmdl.
 36 39  0  0  1  0            999 V2000
    7.5525    0.1232   23.3683 O   0  0  0  0  0  0
    6.7748   -0.7564   22.9956 C   0  0  0  0  0  0
    6.6766   -1.9472   23.6098 N   0  0  0  0  0  0
    7.7260   -2.6459   24.2577 C   0  0  0  0  0  0
    8.9567   -2.7609   23.7712 N   0  0  0  0  0  0
    9.5701   -3.7076   24.5540 N   0  0  0  0  0  0
    8.7635   -4.2215   25.5622 C   0  0  0  0  0  0
    8.8765   -5.1823   26.5682 C   0  0  0  0  0  0
    7.7444   -5.3845   27.3717 C   0  0  0  0  0  0
    6.6018   -4.6727   27.2323 N   0  0  0  0  0  0
    6.4803   -3.7377   26.2568 C   0  0  0  0  0  0
    4.8587   -2.7414   26.1686 Br  0  0  0  0  0  0
    7.5695   -3.5037   25.3723 C   0  0  0  0  0  0
    5.7998   -0.5126   21.8220 C   0  0  2  0  0  0
    6.5397   -0.1713   20.5229 C   0  0  0  0  0  0
    5.5313    0.1361   19.4153 C   0  0  0  0  0  0
    4.7254    1.2577   19.7492 O   0  0  0  0  0  0
    4.2253    1.3243   21.0322 C   0  0  0  0  0  0
    3.1937    2.2520   21.2737 C   0  0  0  0  0  0
    2.6239    2.3754   22.5538 C   0  0  0  0  0  0
    3.0841    1.5620   23.6043 C   0  0  0  0  0  0
    2.3749    1.6878   25.1712 Cl  0  0  0  0  0  0
    4.1187    0.6363   23.3761 C   0  0  0  0  0  0
    4.7084    0.5175   22.0976 C   0  0  0  0  0  0
    5.8390   -2.4844   23.4135 H   0  0  0  0  0  0
   10.5144   -4.0076   24.3493 H   0  0  0  0  0  0
    9.7763   -5.7632   26.7095 H   0  0  0  0  0  0
    7.7606   -6.1203   28.1627 H   0  0  0  0  0  0
    5.2663   -1.4407   21.6357 H   0  0  0  0  0  0
    7.1749    0.7024   20.6684 H   0  0  0  0  0  0
    7.1819   -0.9983   20.2228 H   0  0  0  0  0  0
    6.0528    0.3523   18.4827 H   0  0  0  0  0  0
    4.8891   -0.7249   19.2249 H   0  0  0  0  0  0
    2.8532    2.8873   20.4684 H   0  0  0  0  0  0
    1.8365    3.0942   22.7265 H   0  0  0  0  0  0
    4.4461    0.0064   24.1898 H   0  0  0  0  0  0
  1  2  2  0  0  0
  2  3  1  0  0  0
  2 14  1  0  0  0
  3 25  1  0  0  0
  3  4  1  0  0  0
  4 13  1  0  0  0
  4  5  2  0  0  0
  5  6  1  0  0  0
  6 26  1  0  0  0
  6  7  1  0  0  0
  7 13  2  0  0  0
  7  8  1  0  0  0
  8 27  1  0  0  0
  8  9  2  0  0  0
  9 28  1  0  0  0
  9 10  1  0  0  0
 10 11  2  0  0  0
 11 12  1  0  0  0
 11 13  1  0  0  0
 14 15  1  0  0  0
 14 24  1  0  0  0
 14 29  1  0  0  0
 15 16  1  0  0  0
 15 30  1  0  0  0
 15 31  1  0  0  0
 16 17  1  0  0  0
 16 32  1  0  0  0
 16 33  1  0  0  0
 17 18  1  0  0  0
 18 19  2  0  0  0
 18 24  1  0  0  0
 19 20  1  0  0  0
 19 34  1  0  0  0
 20 21  2  0  0  0
 20 35  1  0  0  0
 21 22  1  0  0  0
 21 23  1  0  0  0
 23 24  2  0  0  0
 23 36  1  0  0  0
M  END
> <s_m_entry_id>
1616

> <s_m_entry_name>
Compounds-withfrags-for-validation-docking.1861

> <s_m_Source_Path>
/home/rodolpho/data/melina/maestro/glide-dock_XP_5RGK_M-PRO_VALIDATION

> <s_m_Source_File>
glide-dock_XP_5RGK_M-PRO_VALIDATION_pv.maegz

> <i_m_Source_File_Index>
1616

> <CID>
JAG-UCB-52b62a6f-15

> <Potency>
99.5

> <pIC50>
4.00218

> <Source>
Postera

> <smiles>
O=C(Nc1n[nH]c2ccnc(Br)c12)C1CCOc2ccc(Cl)cc21

> <Outcome>
Inactive

> <StandardizerResult>
Clear Stereo (ID: ClearStereo)
Wedge Clean (ID: WedgeClean)
Mesomerize (ID: Mesomerize)
Tautomerize (ID: Tautomerize)
Aromatize (ID: Aromatize)
Add Explicit Hydrogens (ID: AddExplicitH)
Neutralize (ID: Neutralize)
Clean 2D (ID: Clean2D)

> <chiral flag>
0

> <version>
0

> <i_lp_mmshare_version>
41011

> <i_f3d_flags>
0

> <s_epik_input>
W2NIXTFbY0hdYyhDbClbY0hdYyhjMTIpW0NAQEhdKFtDSDJdW0NIMl1PMilDKD1PKVtOSF1jKFtuSF1uMyljKGMzNCljKEJyKW5bY0hdW2NIXTQ=

> <s_epik_cmdline>
J2VwaWtfcHl0aG9uJywgJy1waHQnLCAnMC41JywgJy1waCcsICc3LjQnLCAnLXRuJywgJzgnLCAnLW1hJywgJzIwMCcsICctaW1hZScsICc8aW5maWxlLm1hZT4nLCAnLW9tYWUnLCAnPG91dGZpbGUubWFlPic=

> <r_lp_tautomer_probability>
1.0

> <r_epik_Ionization_Penalty>
0.0

> <r_epik_Ionization_Penalty_Charging>
0.0

> <r_epik_Ionization_Penalty_Neutral>
0.0

> <r_epik_State_Penalty>
0.0

> <r_epik_Charging_Adjusted_Penalty>
0.0

> <i_epik_Tot_Q>
0

> <i_epik_Tot_abs_Q>
0

> <s_lp_Force_Field>
OPLS3

> <r_lp_Energy>
29.9462

> <b_lp_Chiralities_Consistent>
1

> <s_lp_Variant>
ligprep_COVID_compounds-withfrags-smallmolecules-forvalidation.maegz:56-1

> <i_glide_original_lignum>
223

> <s_i_glide_gridfile>
glide-grid_5RGK_M-PRO_COVID

> <i_i_glide_lignum>
223

> <r_i_docking_score>
-4.16671095480469

> <r_i_glide_ligand_efficiency>
-0.173612956450195

> <r_i_glide_ligand_efficiency_sa>
-0.500786423149677

> <r_i_glide_ligand_efficiency_ln>
-0.997285129391855

> <r_glide_XP_GScore>
-4.16671095480469

> <r_i_glide_gscore>
-4.16671095480469

> <r_i_glide_evdw>
-31.6070709228516

> <r_i_glide_ecoul>
-8.97339534759521

> <r_i_glide_energy>
-40.5804662704468

> <r_i_glide_einternal>
0.810112655162811

> <r_i_glide_emodel>
-47.2746804317554

> <r_glide_XP_HBond>
-0.294816297426904

> <i_i_glide_confnum>
1

> <i_i_glide_posenum>
10

> <r_i_glide_eff_state_penalty>
0.0

> <i_glide_XP_PoseRank>
1

> <MW>
405.98

> <cLogP>
3.88

> <TPSA>
79.9

> <Rotatable Bonds>
2

> <Fraction sp3>
0.19

> <HBA>
4

> <HBD>
2

> <s_epik_Chemistry_Notes>


> <Structure ID>


> <Submission Fragments>


$$$$
ligprep_COVID_compounds-withfrags-smallmolecules-forvalidation.maegz:29
                    3D
 Structure written by MMmdl.
 71 75  0  0  1  0            999 V2000
    6.3149   -3.8196   24.5581 O   0  0  0  0  0  0
    6.3720   -2.8274   25.2827 C   0  0  0  0  0  0
    6.6461   -1.5976   24.8084 N   0  0  0  0  0  0
    6.8173   -1.2578   23.3951 C   0  0  0  0  0  0
    5.6134   -0.4353   22.8989 C   0  0  0  0  0  0
    5.5778   -0.0742   21.4151 C   0  0  0  0  0  0
    4.7987    1.0342   21.0186 C   0  0  0  0  0  0
    4.6849    1.3859   19.6601 C   0  0  0  0  0  0
    5.3544    0.6340   18.6795 C   0  0  0  0  0  0
    6.1350   -0.4717   19.0596 C   0  0  0  0  0  0
    6.7758   -1.1928   18.1080 F   0  0  0  0  0  0
    6.2468   -0.8285   20.4203 C   0  0  0  0  0  0
    6.1256   -2.9645   26.8050 C   0  0  1  0  0  0
    4.8959   -2.1208   27.1105 C   0  0  0  0  0  0
    4.8028   -1.3550   28.2966 C   0  0  0  0  0  0
    3.6571   -0.5909   28.5786 C   0  0  0  0  0  0
    2.5977   -0.6135   27.6610 C   0  0  0  0  0  0
    2.6376   -1.3341   26.5271 N   0  0  0  0  0  0
    3.7486   -2.0553   26.2777 C   0  0  0  0  0  0
    5.9899   -4.3802   27.2780 N   0  0  0  0  0  0
    7.0813   -5.0325   27.7484 C   0  0  0  0  0  0
    7.0869   -5.6994   28.7830 O   0  0  0  0  0  0
    8.2321   -5.0815   26.8253 C   0  0  0  0  0  0
    9.5254   -4.6494   26.9236 C   0  0  0  0  0  0
   10.1569   -4.9639   25.6899 C   0  0  0  0  0  0
    9.2217   -5.6160   24.9441 C   0  0  0  0  0  0
    8.0518   -5.7061   25.6261 O   0  0  0  0  0  0
    4.6556   -5.0231   27.3245 C   0  0  2  0  0  0
    3.8246   -4.7289   28.5898 C   0  0  0  0  0  0
    2.3634   -5.1146   28.3088 C   0  0  0  0  0  0
    2.2414   -6.6085   27.9693 C   0  0  0  0  0  0
    3.2606   -7.1100   26.9119 C   0  0  1  0  0  0
    2.7832   -7.0897   25.4599 C   0  0  0  0  0  0
    1.6106   -7.7939   25.1087 C   0  0  0  0  0  0
    1.1974   -7.8789   23.7655 C   0  0  0  0  0  0
    1.9572   -7.2644   22.7536 C   0  0  0  0  0  0
    1.5638   -7.3623   21.4608 F   0  0  0  0  0  0
    3.1327   -6.5638   23.0929 C   0  0  0  0  0  0
    3.8873   -5.9725   22.1415 F   0  0  0  0  0  0
    3.5403   -6.4785   24.4334 C   0  0  0  0  0  0
    4.6765   -6.5618   27.1560 C   0  0  0  0  0  0
    6.6433   -0.8256   25.4653 H   0  0  0  0  0  0
    7.7367   -0.6827   23.2819 H   0  0  0  0  0  0
    6.9396   -2.1645   22.8018 H   0  0  0  0  0  0
    4.6930   -0.9636   23.1317 H   0  0  0  0  0  0
    5.5719    0.4912   23.4712 H   0  0  0  0  0  0
    4.2794    1.6264   21.7584 H   0  0  0  0  0  0
    4.0867    2.2361   19.3680 H   0  0  0  0  0  0
    5.2616    0.9028   17.6366 H   0  0  0  0  0  0
    6.8417   -1.6924   20.6757 H   0  0  0  0  0  0
    6.9876   -2.5142   27.3028 H   0  0  0  0  0  0
    5.5933   -1.3633   29.0230 H   0  0  0  0  0  0
    3.5879   -0.0181   29.4911 H   0  0  0  0  0  0
    1.6953   -0.0466   27.8436 H   0  0  0  0  0  0
    3.7033   -2.6319   25.3714 H   0  0  0  0  0  0
    9.9735   -4.1633   27.7728 H   0  0  0  0  0  0
   11.1750   -4.7677   25.3918 H   0  0  0  0  0  0
    9.2237   -6.0636   23.9615 H   0  0  0  0  0  0
    4.1193   -4.6365   26.4613 H   0  0  0  0  0  0
    4.2134   -5.2848   29.4448 H   0  0  0  0  0  0
    3.8546   -3.6867   28.8859 H   0  0  0  0  0  0
    1.7457   -4.8808   29.1756 H   0  0  0  0  0  0
    1.9725   -4.5169   27.4844 H   0  0  0  0  0  0
    2.4389   -7.1547   28.8934 H   0  0  0  0  0  0
    1.2167   -6.8619   27.6972 H   0  0  0  0  0  0
    3.3523   -8.1637   27.1036 H   0  0  0  0  0  0
    1.0316   -8.2991   25.8674 H   0  0  0  0  0  0
    0.3049   -8.4280   23.5064 H   0  0  0  0  0  0
    4.4562   -5.9441   24.6357 H   0  0  0  0  0  0
    5.3707   -6.8916   26.3813 H   0  0  0  0  0  0
    5.0491   -7.0243   28.0718 H   0  0  0  0  0  0
  1  2  2  0  0  0
  2  3  1  0  0  0
  2 13  1  0  0  0
  3  4  1  0  0  0
  3 42  1  0  0  0
  4  5  1  0  0  0
  4 43  1  0  0  0
  4 44  1  0  0  0
  5  6  1  0  0  0
  5 45  1  0  0  0
  5 46  1  0  0  0
  6  7  2  0  0  0
  6 12  1  0  0  0
  7  8  1  0  0  0
  7 47  1  0  0  0
  8  9  2  0  0  0
  8 48  1  0  0  0
  9 10  1  0  0  0
  9 49  1  0  0  0
 10 11  1  0  0  0
 10 12  2  0  0  0
 12 50  1  0  0  0
 13 14  1  0  0  0
 13 20  1  0  0  0
 13 51  1  0  0  0
 14 15  2  0  0  0
 14 19  1  0  0  0
 15 16  1  0  0  0
 15 52  1  0  0  0
 16 17  2  0  0  0
 16 53  1  0  0  0
 17 18  1  0  0  0
 17 54  1  0  0  0
 18 19  2  0  0  0
 19 55  1  0  0  0
 20 21  1  0  0  0
 20 28  1  0  0  0
 21 22  2  0  0  0
 21 23  1  0  0  0
 23 24  2  0  0  0
 23 27  1  0  0  0
 24 25  1  0  0  0
 24 56  1  0  0  0
 25 26  2  0  0  0
 25 57  1  0  0  0
 26 27  1  0  0  0
 26 58  1  0  0  0
 28 29  1  0  0  0
 28 41  1  0  0  0
 28 59  1  0  0  0
 29 30  1  0  0  0
 29 60  1  0  0  0
 29 61  1  0  0  0
 30 31  1  0  0  0
 30 62  1  0  0  0
 30 63  1  0  0  0
 31 32  1  0  0  0
 31 64  1  0  0  0
 31 65  1  0  0  0
 32 33  1  0  0  0
 32 41  1  0  0  0
 32 66  1  0  0  0
 33 34  2  0  0  0
 33 40  1  0  0  0
 34 35  1  0  0  0
 34 67  1  0  0  0
 35 36  2  0  0  0
 35 68  1  0  0  0
 36 37  1  0  0  0
 36 38  1  0  0  0
 38 39  1  0  0  0
 38 40  2  0  0  0
 40 69  1  0  0  0
 41 70  1  0  0  0
 41 71  1  0  0  0
M  END
> <s_m_entry_id>
1623

> <s_m_entry_name>
Compounds-withfrags-for-validation-docking.1888

> <s_m_Source_Path>
/home/rodolpho/data/melina/maestro/glide-dock_XP_5RGK_M-PRO_VALIDATION

> <s_m_Source_File>
glide-dock_XP_5RGK_M-PRO_VALIDATION_pv.maegz

> <i_m_Source_File_Index>
1623

> <CID>
ALP-POS-b0bc6a46-26

> <Potency>
99.5

> <pIC50>
4.00218

> <Source>
Postera

> <smiles>
O=C(NCCc1cccc(F)c1)C(c1cccnc1)N(C(=O)c1ccco1)C1CCCC(c2ccc(F)c(F)c2)C1

> <Outcome>
Inactive

> <StandardizerResult>
Clear Stereo (ID: ClearStereo)
Wedge Clean (ID: WedgeClean)
Mesomerize (ID: Mesomerize)
Tautomerize (ID: Tautomerize)
Aromatize (ID: Aromatize)
Add Explicit Hydrogens (ID: AddExplicitH)
Neutralize (ID: Neutralize)
Clean 2D (ID: Clean2D)

> <chiral flag>
0

> <version>
0

> <i_lp_mmshare_version>
41011

> <i_f3d_flags>
0

> <s_epik_input>
RmMoW2NIXTEpW2NIXVtjSF1bY0hdYzFbQ0gyXVtDSDJdW05IXUMoPU8pW0NAQEhdKGMyW2NIXVtjSF1bY0hdbltjSF0yKU4oQyg9TyljM1tjSF1bY0hdW2NIXW8zKVtDQEBIXTRbQ0gyXVtDSDJdW0NIMl1bQ0BIXShbQ0gyXTQpYzVbY0hdW2NIXWMoRiljKEYpW2NIXTU=

> <s_epik_cmdline>
J2VwaWtfcHl0aG9uJywgJy1waHQnLCAnMC41JywgJy1waCcsICc3LjQnLCAnLXRuJywgJzgnLCAnLW1hJywgJzIwMCcsICctaW1hZScsICc8aW5maWxlLm1hZT4nLCAnLW9tYWUnLCAnPG91dGZpbGUubWFlPic=

> <r_lp_tautomer_probability>
1.0

> <r_epik_Ionization_Penalty>
8.0E-4

> <r_epik_Ionization_Penalty_Charging>
0.0

> <r_epik_Ionization_Penalty_Neutral>
8.0E-4

> <r_epik_State_Penalty>
0.0

> <r_epik_Charging_Adjusted_Penalty>
0.0

> <i_epik_Tot_Q>
0

> <i_epik_Tot_abs_Q>
0

> <s_lp_Force_Field>
OPLS3

> <r_lp_Energy>
66.2149

> <b_lp_Chiralities_Consistent>
1

> <s_lp_Variant>
ligprep_COVID_compounds-withfrags-smallmolecules-forvalidation.maegz:29-1

> <i_glide_original_lignum>
153

> <s_i_glide_gridfile>
glide-grid_5RGK_M-PRO_COVID

> <i_i_glide_lignum>
153

> <r_i_docking_score>
-4.16239741640295

> <r_i_glide_ligand_efficiency>
-0.10152188820495

> <r_i_glide_ligand_efficiency_sa>
-0.350069524751181

> <r_i_glide_ligand_efficiency_ln>
-0.883066463713425

> <r_glide_XP_GScore>
-4.16239741640295

> <r_i_glide_gscore>
-4.16239741640295

> <r_i_glide_evdw>
-46.4306640625

> <r_i_glide_ecoul>
-5.39325332641602

> <r_i_glide_energy>
-51.823917388916

> <r_i_glide_einternal>
30.8565635681152

> <r_i_glide_emodel>
-58.2360534667969

> <r_glide_XP_HBond>
-0.586094676291793

> <i_i_glide_confnum>
4

> <i_i_glide_posenum>
1

> <r_i_glide_eff_state_penalty>
0.0

> <i_glide_XP_PoseRank>
1

> <MW>
561.22

> <cLogP>
6.36

> <TPSA>
75.44

> <Rotatable Bonds>
9

> <Fraction sp3>
0.28

> <HBA>
4

> <HBD>
1

> <s_epik_Chemistry_Notes>


> <Structure ID>


> <Submission Fragments>


$$$$
ligprep_COVID_compounds-withfrags-smallmolecules-forvalidation.maegz:20
                    3D
 Structure written by MMmdl.
 69 72  0  0  1  0            999 V2000
   -0.2386    2.6388   26.1087 C   0  0  0  0  0  0
    1.1331    3.1978   26.5349 C   0  0  0  0  0  0
    0.9710    4.7192   26.7520 C   0  0  0  0  0  0
    1.5426    2.5749   27.8852 C   0  0  0  0  0  0
    2.1861    2.8501   25.4654 C   0  0  0  0  0  0
    2.9025    3.8452   24.7564 C   0  0  0  0  0  0
    3.8621    3.4929   23.7887 C   0  0  0  0  0  0
    4.1555    2.1376   23.5338 C   0  0  0  0  0  0
    5.0715    1.7740   22.5006 N   0  0  0  0  0  0
    4.4749    1.4134   21.3182 C   0  0  0  0  0  0
    3.2474    1.4368   21.1645 O   0  0  0  0  0  0
    5.2729    0.9701   20.1198 C   0  0  0  0  0  0
    6.3200    0.0214   20.1665 C   0  0  0  0  0  0
    7.0044   -0.2851   18.9754 C   0  0  0  0  0  0
    6.6869    0.2423   17.7754 N   0  0  0  0  0  0
    5.6272    1.0672   17.7227 C   0  0  0  0  0  0
    4.8866    1.4371   18.8502 C   0  0  0  0  0  0
    6.5614    1.8592   22.7194 C   0  0  2  0  0  0
    7.1718    0.6574   23.4783 C   0  0  0  0  0  0
    8.3701    0.6493   23.7709 O   0  0  0  0  0  0
    6.3720   -0.3864   23.7382 N   0  0  0  0  0  0
    6.8287   -1.7020   24.1508 C   0  0  0  0  0  0
    7.5332   -1.7243   25.5184 C   0  0  0  0  0  0
    8.0519   -3.1141   25.7993 C   0  0  0  0  0  0
    9.1051   -3.6412   25.0202 C   0  0  0  0  0  0
    9.5175   -4.9726   25.2023 C   0  0  0  0  0  0
    8.8808   -5.7672   26.1710 C   0  0  0  0  0  0
    7.8662   -5.2301   26.9859 C   0  0  0  0  0  0
    7.2875   -5.9788   27.9533 F   0  0  0  0  0  0
    7.4467   -3.9039   26.7955 C   0  0  0  0  0  0
    7.1260    3.0637   23.4536 C   0  0  0  0  0  0
    8.1698    3.8059   22.8521 C   0  0  0  0  0  0
    8.7701    4.8969   23.5030 C   0  0  0  0  0  0
    8.3065    5.2365   24.7813 C   0  0  0  0  0  0
    7.3229    4.5592   25.3979 N   0  0  0  0  0  0
    6.7680    3.5146   24.7481 C   0  0  0  0  0  0
    3.4143    1.1393   24.2004 C   0  0  0  0  0  0
    2.4489    1.4941   25.1607 C   0  0  0  0  0  0
   -1.0130    2.8852   26.8382 H   0  0  0  0  0  0
   -0.2291    1.5532   26.0091 H   0  0  0  0  0  0
   -0.5469    3.0527   25.1462 H   0  0  0  0  0  0
    0.6436    5.2246   25.8415 H   0  0  0  0  0  0
    1.9032    5.1814   27.0792 H   0  0  0  0  0  0
    0.2247    4.9319   27.5184 H   0  0  0  0  0  0
    0.8318    2.8315   28.6723 H   0  0  0  0  0  0
    2.5220    2.9358   28.2003 H   0  0  0  0  0  0
    1.5911    1.4864   27.8375 H   0  0  0  0  0  0
    2.7310    4.8967   24.9263 H   0  0  0  0  0  0
    4.3781    4.2691   23.2411 H   0  0  0  0  0  0
    6.6252   -0.4606   21.0784 H   0  0  0  0  0  0
    7.8439   -0.9631   18.9881 H   0  0  0  0  0  0
    5.3760    1.4644   16.7516 H   0  0  0  0  0  0
    4.0666    2.1354   18.7435 H   0  0  0  0  0  0
    7.0447    1.8636   21.7454 H   0  0  0  0  0  0
    5.3995   -0.3116   23.4850 H   0  0  0  0  0  0
    5.9676   -2.3710   24.1743 H   0  0  0  0  0  0
    7.4891   -2.0834   23.3702 H   0  0  0  0  0  0
    8.3817   -1.0431   25.5598 H   0  0  0  0  0  0
    6.8425   -1.4083   26.3002 H   0  0  0  0  0  0
    9.5806   -3.0382   24.2607 H   0  0  0  0  0  0
   10.3073   -5.3903   24.5943 H   0  0  0  0  0  0
    9.1747   -6.7983   26.3037 H   0  0  0  0  0  0
    6.6455   -3.5085   27.4020 H   0  0  0  0  0  0
    8.5147    3.5306   21.8668 H   0  0  0  0  0  0
    9.5601    5.4550   23.0244 H   0  0  0  0  0  0
    8.7362    6.0673   25.3227 H   0  0  0  0  0  0
    5.9890    3.0362   25.3107 H   0  0  0  0  0  0
    3.5740    0.0952   23.9761 H   0  0  0  0  0  0
    1.9050    0.7070   25.6604 H   0  0  0  0  0  0
  1  2  1  0  0  0
  1 39  1  0  0  0
  1 40  1  0  0  0
  1 41  1  0  0  0
  2  3  1  0  0  0
  2  4  1  0  0  0
  2  5  1  0  0  0
  3 42  1  0  0  0
  3 43  1  0  0  0
  3 44  1  0  0  0
  4 45  1  0  0  0
  4 46  1  0  0  0
  4 47  1  0  0  0
  5  6  2  0  0  0
  5 38  1  0  0  0
  6  7  1  0  0  0
  6 48  1  0  0  0
  7  8  2  0  0  0
  7 49  1  0  0  0
  8  9  1  0  0  0
  8 37  1  0  0  0
  9 10  1  0  0  0
  9 18  1  0  0  0
 10 11  2  0  0  0
 10 12  1  0  0  0
 12 13  2  0  0  0
 12 17  1  0  0  0
 13 14  1  0  0  0
 13 50  1  0  0  0
 14 15  2  0  0  0
 14 51  1  0  0  0
 15 16  1  0  0  0
 16 17  2  0  0  0
 16 52  1  0  0  0
 17 53  1  0  0  0
 18 19  1  0  0  0
 18 31  1  0  0  0
 18 54  1  0  0  0
 19 20  2  0  0  0
 19 21  1  0  0  0
 21 22  1  0  0  0
 21 55  1  0  0  0
 22 23  1  0  0  0
 22 56  1  0  0  0
 22 57  1  0  0  0
 23 24  1  0  0  0
 23 58  1  0  0  0
 23 59  1  0  0  0
 24 25  2  0  0  0
 24 30  1  0  0  0
 25 26  1  0  0  0
 25 60  1  0  0  0
 26 27  2  0  0  0
 26 61  1  0  0  0
 27 28  1  0  0  0
 27 62  1  0  0  0
 28 29  1  0  0  0
 28 30  2  0  0  0
 30 63  1  0  0  0
 31 32  2  0  0  0
 31 36  1  0  0  0
 32 33  1  0  0  0
 32 64  1  0  0  0
 33 34  2  0  0  0
 33 65  1  0  0  0
 34 35  1  0  0  0
 34 66  1  0  0  0
 35 36  2  0  0  0
 36 67  1  0  0  0
 37 38  2  0  0  0
 37 68  1  0  0  0
 38 69  1  0  0  0
M  END
> <s_m_entry_id>
1652

> <s_m_entry_name>
Compounds-withfrags-for-validation-docking.1897

> <s_m_Source_Path>
/home/rodolpho/data/melina/maestro/glide-dock_XP_5RGK_M-PRO_VALIDATION

> <s_m_Source_File>
glide-dock_XP_5RGK_M-PRO_VALIDATION_pv.maegz

> <i_m_Source_File_Index>
1652

> <CID>
ALP-POS-02c6a514-26

> <Potency>
99.5

> <pIC50>
4.00218

> <Source>
Postera

> <smiles>
CC(C)(C)c1ccc(N(C(=O)c2ccncc2)C(C(=O)NCCc2cccc(F)c2)c2cccnc2)cc1

> <Outcome>
Inactive

> <StandardizerResult>
Clear Stereo (ID: ClearStereo)
Wedge Clean (ID: WedgeClean)
Mesomerize (ID: Mesomerize)
Tautomerize (ID: Tautomerize)
Aromatize (ID: Aromatize)
Add Explicit Hydrogens (ID: AddExplicitH)
Neutralize (ID: Neutralize)
Clean 2D (ID: Clean2D)

> <chiral flag>
0

> <version>
0

> <i_lp_mmshare_version>
41011

> <i_f3d_flags>
0

> <s_epik_input>
W2NIXTFbY0hdbltjSF1bY0hdYzFDKD1PKU4oYyhbY0hdW2NIXTIpW2NIXVtjSF1jMkMoW0NIM10pKFtDSDNdKVtDSDNdKVtDQEBIXShjM1tjSF1bY0hdW2NIXW5bY0hdMylDKD1PKVtOSF1bQ0gyXVtDSDJdYzRbY0hdW2NIXVtjSF1jKEYpW2NIXTQ=

> <s_epik_cmdline>
J2VwaWtfcHl0aG9uJywgJy1waHQnLCAnMC41JywgJy1waCcsICc3LjQnLCAnLXRuJywgJzgnLCAnLW1hJywgJzIwMCcsICctaW1hZScsICc8aW5maWxlLm1hZT4nLCAnLW9tYWUnLCAnPG91dGZpbGUubWFlPic=

> <r_lp_tautomer_probability>
1.0

> <r_epik_Ionization_Penalty>
6.0E-4

> <r_epik_Ionization_Penalty_Charging>
0.0

> <r_epik_Ionization_Penalty_Neutral>
6.0E-4

> <r_epik_State_Penalty>
0.0

> <r_epik_Charging_Adjusted_Penalty>
0.0

> <i_epik_Tot_Q>
0

> <i_epik_Tot_abs_Q>
0

> <s_lp_Force_Field>
OPLS3

> <r_lp_Energy>
77.8449

> <b_lp_Chiralities_Consistent>
1

> <s_lp_Variant>
ligprep_COVID_compounds-withfrags-smallmolecules-forvalidation.maegz:20-2

> <i_glide_original_lignum>
134

> <s_i_glide_gridfile>
glide-grid_5RGK_M-PRO_COVID

> <i_i_glide_lignum>
134

> <r_i_docking_score>
-4.1461525630074

> <r_i_glide_ligand_efficiency>
-0.109109277973879

> <r_i_glide_ligand_efficiency_sa>
-0.366822708756989

> <r_i_glide_ligand_efficiency_ln>
-0.894032460035635

> <r_glide_XP_GScore>
-4.1461525630074

> <r_i_glide_gscore>
-4.1461525630074

> <r_i_glide_evdw>
-37.5636138916016

> <r_i_glide_ecoul>
-12.7060708999634

> <r_i_glide_energy>
-50.2696847915649

> <r_i_glide_einternal>
4.55950260162354

> <r_i_glide_emodel>
-63.5859631872021

> <r_glide_XP_HBond>
-0.799998191864099

> <i_i_glide_confnum>
3

> <i_i_glide_posenum>
14

> <r_i_glide_eff_state_penalty>
0.0

> <i_glide_XP_PoseRank>
1

> <MW>
510.24

> <cLogP>
5.66

> <TPSA>
75.19

> <Rotatable Bonds>
8

> <Fraction sp3>
0.23

> <HBA>
4

> <HBD>
1

> <s_epik_Chemistry_Notes>


> <Structure ID>


> <Submission Fragments>


$$$$
ligprep_COVID_compounds-withfrags-smallmolecules-forvalidation.maegz:4
                    3D
 Structure written by MMmdl.
 93 97  0  0  1  0            999 V2000
    3.4346    7.6625   21.0823 C   0  0  0  0  0  0
    4.8095    8.3396   21.2008 C   0  0  0  0  0  0
    5.4384    8.4483   19.8066 C   0  0  0  0  0  0
    4.6314    9.7498   21.8007 C   0  0  0  0  0  0
    5.6547    7.4364   21.9909 N   0  0  0  0  0  0
    6.3703    7.6073   23.1149 C   0  0  0  0  0  0
    6.4895    8.6684   23.7234 O   0  0  0  0  0  0
    7.0133    6.3342   23.6875 C   0  0  1  0  0  0
    8.5183    6.6221   23.9349 C   0  0  0  0  0  0
    9.2323    5.4777   24.5024 N   0  0  0  0  0  0
    9.2805    4.3594   23.5589 C   0  0  0  0  0  0
   10.4330    3.3843   23.7186 C   0  0  0  0  0  0
   11.5998    3.5580   22.9481 C   0  0  0  0  0  0
   12.5864    2.5570   22.9669 C   0  0  0  0  0  0
   12.3734    1.4243   23.7710 C   0  0  0  0  0  0
   11.2822    1.2662   24.5510 N   0  0  0  0  0  0
   10.3440    2.2363   24.5307 C   0  0  0  0  0  0
    8.6233    5.1767   25.7992 C   0  0  0  0  0  0
    7.1101    4.8689   25.6892 C   0  0  0  0  0  0
    6.3418    5.9225   24.9537 N   0  3  2  0  0  0
    4.8761    5.6197   24.8095 C   0  0  0  0  0  0
    4.5490    4.2039   24.2589 C   0  0  2  0  0  0
    3.3820    4.1207   23.2406 C   0  0  0  0  0  0
    3.0221    2.7046   22.6730 C   0  0  1  0  0  0
    2.4267    2.7600   21.2454 C   0  0  0  0  0  0
    1.0006    3.2743   21.2081 C   0  0  0  0  0  0
   -0.0704    2.3984   21.4858 C   0  0  0  0  0  0
   -1.3981    2.8683   21.4328 C   0  0  0  0  0  0
   -1.6564    4.2145   21.1077 C   0  0  0  0  0  0
   -0.5877    5.0912   20.8305 C   0  0  0  0  0  0
    0.7403    4.6218   20.8812 C   0  0  0  0  0  0
    4.1302    1.6308   22.7261 C   0  0  0  0  0  0
    3.9751    0.6379   23.4348 O   0  0  0  0  0  0
    5.2127    1.8366   21.9578 N   0  0  0  0  0  0
    6.3765    0.9955   21.7013 C   0  0  1  0  0  0
    6.8699    0.1870   22.8787 C   0  0  0  0  0  0
    7.5414    0.6467   24.0186 C   0  0  0  0  0  0
    7.9756   -0.3037   24.9714 C   0  0  0  0  0  0
    7.7197   -1.6818   24.7805 C   0  0  0  0  0  0
    7.0159   -2.1256   23.6395 C   0  0  0  0  0  0
    6.6029   -1.1600   22.7042 C   0  0  0  0  0  0
    5.8209   -1.3720   21.4413 C   0  0  0  0  0  0
    6.0329   -0.0775   20.6383 C   0  0  2  0  0  0
    7.1401   -0.2529   19.7708 O   0  0  0  0  0  0
    4.1728    3.4363   25.3798 O   0  0  0  0  0  0
    2.7540    8.2476   20.4633 H   0  0  0  0  0  0
    2.9640    7.5391   22.0572 H   0  0  0  0  0  0
    3.5173    6.6740   20.6276 H   0  0  0  0  0  0
    5.5659    7.4554   19.3709 H   0  0  0  0  0  0
    6.4173    8.9264   19.8474 H   0  0  0  0  0  0
    4.8118    9.0331   19.1327 H   0  0  0  0  0  0
    3.9697   10.3551   21.1813 H   0  0  0  0  0  0
    5.5795   10.2835   21.8643 H   0  0  0  0  0  0
    4.1949    9.7099   22.7988 H   0  0  0  0  0  0
    5.6414    6.4754   21.6547 H   0  0  0  0  0  0
    6.9136    5.5225   22.9711 H   0  0  0  0  0  0
    8.9993    6.9151   23.0004 H   0  0  0  0  0  0
    8.6411    7.4740   24.6079 H   0  0  0  0  0  0
    8.3414    3.8085   23.5200 H   0  0  0  0  0  0
    9.3966    4.7879   22.5706 H   0  0  0  0  0  0
   11.7175    4.4215   22.3077 H   0  0  0  0  0  0
   13.4825    2.6461   22.3680 H   0  0  0  0  0  0
   13.1099    0.6361   23.8039 H   0  0  0  0  0  0
    9.5030    2.0960   25.1906 H   0  0  0  0  0  0
    9.1420    4.3332   26.2531 H   0  0  0  0  0  0
    8.7789    6.0255   26.4676 H   0  0  0  0  0  0
    6.9966    3.8894   25.2312 H   0  0  0  0  0  0
    6.6960    4.7754   26.6946 H   0  0  0  0  0  0
    4.4204    5.7583   25.7910 H   0  0  0  0  0  0
    4.3697    6.3649   24.1981 H   0  0  0  0  0  0
    5.4303    3.7828   23.7803 H   0  0  0  0  0  0
    2.4860    4.5341   23.7064 H   0  0  0  0  0  0
    3.5771    4.7928   22.4061 H   0  0  0  0  0  0
    2.2492    2.3013   23.3288 H   0  0  0  0  0  0
    3.0511    3.3794   20.5978 H   0  0  0  0  0  0
    2.4280    1.7694   20.7840 H   0  0  0  0  0  0
    0.1212    1.3655   21.7381 H   0  0  0  0  0  0
   -2.2188    2.1962   21.6424 H   0  0  0  0  0  0
   -2.6756    4.5743   21.0691 H   0  0  0  0  0  0
   -0.7851    6.1231   20.5792 H   0  0  0  0  0  0
    1.5548    5.2964   20.6621 H   0  0  0  0  0  0
    5.2351    2.7454   21.4906 H   0  0  0  0  0  0
    7.1749    1.6554   21.3550 H   0  0  0  0  0  0
    7.6958    1.7024   24.1545 H   0  0  0  0  0  0
    8.4918    0.0242   25.8613 H   0  0  0  0  0  0
    8.0433   -2.3983   25.5222 H   0  0  0  0  0  0
    6.7907   -3.1712   23.4924 H   0  0  0  0  0  0
    6.0524   -2.2950   20.9100 H   0  0  0  0  0  0
    4.7815   -1.3637   21.7705 H   0  0  0  0  0  0
    5.1682    0.1785   20.0238 H   0  0  0  0  0  0
    7.8495   -0.6184   20.2876 H   0  0  0  0  0  0
    4.8789    3.4360   26.0080 H   0  0  0  0  0  0
    6.3925    6.7531   25.5252 H   0  0  0  0  0  0
  1  2  1  0  0  0
  1 46  1  0  0  0
  1 47  1  0  0  0
  1 48  1  0  0  0
  2  3  1  0  0  0
  2  4  1  0  0  0
  2  5  1  0  0  0
  3 49  1  0  0  0
  3 50  1  0  0  0
  3 51  1  0  0  0
  4 52  1  0  0  0
  4 53  1  0  0  0
  4 54  1  0  0  0
  5  6  1  0  0  0
  5 55  1  0  0  0
  6  7  2  0  0  0
  6  8  1  0  0  0
  8  9  1  0  0  0
  8 20  1  0  0  0
  8 56  1  0  0  0
  9 10  1  0  0  0
  9 57  1  0  0  0
  9 58  1  0  0  0
 10 11  1  0  0  0
 10 18  1  0  0  0
 11 12  1  0  0  0
 11 59  1  0  0  0
 11 60  1  0  0  0
 12 13  2  0  0  0
 12 17  1  0  0  0
 13 14  1  0  0  0
 13 61  1  0  0  0
 14 15  2  0  0  0
 14 62  1  0  0  0
 15 16  1  0  0  0
 15 63  1  0  0  0
 16 17  2  0  0  0
 17 64  1  0  0  0
 18 19  1  0  0  0
 18 65  1  0  0  0
 18 66  1  0  0  0
 19 20  1  0  0  0
 19 67  1  0  0  0
 19 68  1  0  0  0
 20 21  1  0  0  0
 20 93  1  0  0  0
 21 22  1  0  0  0
 21 69  1  0  0  0
 21 70  1  0  0  0
 22 23  1  0  0  0
 22 45  1  0  0  0
 22 71  1  0  0  0
 23 24  1  0  0  0
 23 72  1  0  0  0
 23 73  1  0  0  0
 24 25  1  0  0  0
 24 32  1  0  0  0
 24 74  1  0  0  0
 25 26  1  0  0  0
 25 75  1  0  0  0
 25 76  1  0  0  0
 26 27  2  0  0  0
 26 31  1  0  0  0
 27 28  1  0  0  0
 27 77  1  0  0  0
 28 29  2  0  0  0
 28 78  1  0  0  0
 29 30  1  0  0  0
 29 79  1  0  0  0
 30 31  2  0  0  0
 30 80  1  0  0  0
 31 81  1  0  0  0
 32 33  2  0  0  0
 32 34  1  0  0  0
 34 35  1  0  0  0
 34 82  1  0  0  0
 35 36  1  0  0  0
 35 43  1  0  0  0
 35 83  1  0  0  0
 36 37  2  0  0  0
 36 41  1  0  0  0
 37 38  1  0  0  0
 37 84  1  0  0  0
 38 39  2  0  0  0
 38 85  1  0  0  0
 39 40  1  0  0  0
 39 86  1  0  0  0
 40 41  2  0  0  0
 40 87  1  0  0  0
 41 42  1  0  0  0
 42 43  1  0  0  0
 42 88  1  0  0  0
 42 89  1  0  0  0
 43 44  1  0  0  0
 43 90  1  0  0  0
 44 91  1  0  0  0
 45 92  1  0  0  0
M  CHG  1  20   1
M  END
> <s_m_entry_id>
1662

> <s_m_entry_name>
Compounds-withfrags-for-validation-docking.1913

> <s_m_Source_Path>
/home/rodolpho/data/melina/maestro/glide-dock_XP_5RGK_M-PRO_VALIDATION

> <s_m_Source_File>
glide-dock_XP_5RGK_M-PRO_VALIDATION_pv.maegz

> <i_m_Source_File_Index>
1662

> <CID>
Indinavir

> <Potency>
43.13

> <pIC50>
4.36522

> <Source>
https://doi.org/10.1101/2020.03.23.004580

> <smiles>
C(C(C([H])([H])[H])(C([H])([H])[H])N(C(=O)C1(C([H])([H])N(C(C2=C([H])C([H])=C([H])N=C2[H])([H])[H])C([H])([H])C([H])([H])N1C(C(C(C(C(C1=C([H])C([H])=C([H])C([H])=C1[H])([H])[H])(C(=O)N(C1(C2=C(C(=C(C([H])=C2C([H])([H])C1(O[H])[H])[H])[H])[H])[H])[H])[H])([H])[H])(O[H])[H])([H])[H])[H])[H])([H])([H])[H]

> <Outcome>
Inactive

> <StandardizerResult>
Clear Stereo (ID: ClearStereo)
Wedge Clean (ID: WedgeClean)
Mesomerize (ID: Mesomerize)
Tautomerize (ID: Tautomerize)
Aromatize (ID: Aromatize)
Add Explicit Hydrogens (ID: AddExplicitH)
Neutralize (ID: Neutralize)
Clean 2D (ID: Clean2D)

> <chiral flag>
0

> <version>
0

> <i_lp_mmshare_version>
41011

> <i_f3d_flags>
0

> <s_epik_input>
W2NIXTFuW2NIXVtjSF1bY0hdYzFbQ0gyXU4oW0NIMl1bQ0BASF0yQyg9TylbTkhdQyhbQ0gzXSkoW0NIM10pW0NIM10pW0NIMl1bQ0gyXU4yW0NIMl1bQ0BASF0oW09IXSlbQ0gyXVtDQEBIXShbQ0gyXWMzW2NIXVtjSF1bY0hdW2NIXVtjSF0zKUMoPU8pW05IXVtDQEBIXTRbQ0BASF0oW09IXSlbQ0gyXWMoYzQ1KVtjSF1bY0hdW2NIXVtjSF01

> <s_epik_cmdline>
J2VwaWtfcHl0aG9uJywgJy1waHQnLCAnMC41JywgJy1waCcsICc3LjQnLCAnLXRuJywgJzgnLCAnLW1hJywgJzIwMCcsICctaW1hZScsICc8aW5maWxlLm1hZT4nLCAnLW9tYWUnLCAnPG91dGZpbGUubWFlPic=

> <r_epik_Ionization_Penalty>
0.3395

> <r_epik_Ionization_Penalty_Charging>
0.3352

> <r_epik_Ionization_Penalty_Neutral>
0.0044

> <r_epik_State_Penalty>
0.5191

> <r_epik_Charging_Adjusted_Penalty>
0.854238

> <i_epik_Tot_Q>
1

> <i_epik_Tot_abs_Q>
1

> <s_lp_Force_Field>
OPLS3

> <r_lp_Energy>
52.4159

> <b_lp_Chiralities_Consistent>
1

> <s_lp_Variant>
ligprep_COVID_compounds-withfrags-smallmolecules-forvalidation.maegz:4-6

> <i_glide_original_lignum>
25

> <s_i_glide_gridfile>
glide-grid_5RGK_M-PRO_COVID

> <i_i_glide_lignum>
25

> <r_i_docking_score>
-4.14102370901305

> <r_i_glide_ligand_efficiency>
-0.0920227490891789

> <r_i_glide_ligand_efficiency_sa>
-0.327315099680744

> <r_i_glide_ligand_efficiency_ln>
-0.861517470349978

> <r_glide_XP_GScore>
-4.66009570901305

> <r_i_glide_gscore>
-4.66009570901305

> <r_i_glide_evdw>
-38.6410293579102

> <r_i_glide_ecoul>
-19.491907119751

> <r_i_glide_energy>
-58.1329364776611

> <r_i_glide_einternal>
5.23040651850879

> <r_i_glide_emodel>
-82.2903823852539

> <r_glide_XP_HBond>
-1.4

> <i_i_glide_confnum>
12

> <i_i_glide_posenum>
21

> <r_i_glide_eff_state_penalty>
0.519072

> <i_glide_XP_PoseRank>
1

> <r_lp_tautomer_probability>


> <s_epik_Chemistry_Notes>


> <MW>


> <cLogP>


> <TPSA>


> <Rotatable Bonds>


> <Fraction sp3>


> <HBA>


> <HBD>


> <Structure ID>


> <Submission Fragments>


$$$$
ligprep_COVID_compounds-withfrags-smallmolecules-forvalidation.maegz:17
                    3D
 Structure written by MMmdl.
 71 75  0  0  1  0            999 V2000
    8.3470   -5.8451   25.5041 C   0  0  0  0  0  0
    8.1944   -4.4289   26.0758 C   0  0  0  0  0  0
    7.2208   -4.5265   27.2674 C   0  0  0  0  0  0
    9.5736   -3.9747   26.5685 C   0  0  0  0  0  0
    7.6672   -3.4336   25.0274 C   0  0  0  0  0  0
    7.6594   -3.7251   23.6495 C   0  0  0  0  0  0
    7.1753   -2.7948   22.7123 C   0  0  0  0  0  0
    6.6726   -1.5100   23.0741 C   0  0  0  0  0  0
    6.1773   -0.5120   22.0963 N   0  0  0  0  0  0
    5.9795   -0.8451   20.7724 C   0  0  0  0  0  0
    5.9750   -1.9863   20.3330 O   0  0  0  0  0  0
    5.7180    0.1525   19.7203 C   0  0  0  0  0  0
    6.3831    0.3534   18.5410 C   0  0  0  0  0  0
    5.6173    1.2935   17.8018 C   0  0  0  0  0  0
    4.5358    1.5810   18.5802 C   0  0  0  0  0  0
    4.5629    0.8724   19.7374 O   0  0  0  0  0  0
    5.7997    0.8846   22.5348 C   0  0  2  0  0  0
    6.9006    1.7119   23.2539 C   0  0  0  0  0  0
    7.9299    1.1894   23.6831 O   0  0  0  0  0  0
    6.7069    3.0362   23.3715 N   0  0  0  0  0  0
    7.6127    3.9322   24.0881 C   0  0  0  0  0  0
    8.5612    4.6424   23.1107 C   0  0  0  0  0  0
    9.7392    5.3291   23.7882 C   0  0  0  0  0  0
    9.5348    6.2638   24.8271 C   0  0  0  0  0  0
   10.6344    6.9065   25.4315 C   0  0  0  0  0  0
   11.9448    6.6360   24.9850 C   0  0  0  0  0  0
   12.1545    5.7011   23.9534 C   0  0  0  0  0  0
   13.4106    5.4365   23.5168 F   0  0  0  0  0  0
   11.0557    5.0406   23.3706 C   0  0  0  0  0  0
    4.4207    0.9722   23.1940 C   0  0  0  0  0  0
    3.8536    0.1923   24.1706 C   0  0  0  0  0  0
    2.5961    0.6365   24.5397 N   0  0  0  0  0  0
    2.3139    1.6315   23.7103 C   0  0  0  0  0  0
    1.1448    2.4248   23.5723 C   0  0  0  0  0  0
    1.0868    3.3931   22.6008 C   0  0  0  0  0  0
    2.1876    3.5980   21.7441 C   0  0  0  0  0  0
    3.3231    2.8400   21.8779 C   0  0  0  0  0  0
    3.4084    1.8736   22.8367 N   0  0  0  0  0  0
    6.7012   -1.2521   24.4701 C   0  0  0  0  0  0
    7.1903   -2.1666   25.4188 C   0  0  0  0  0  0
    8.6237   -6.5635   26.2789 H   0  0  0  0  0  0
    9.1161   -5.9076   24.7325 H   0  0  0  0  0  0
    7.3998   -6.1636   25.0757 H   0  0  0  0  0  0
    6.2317   -4.8561   26.9470 H   0  0  0  0  0  0
    7.0997   -3.5705   27.7712 H   0  0  0  0  0  0
    7.5781   -5.2391   28.0133 H   0  0  0  0  0  0
    9.9539   -4.6338   27.3511 H   0  0  0  0  0  0
    9.5339   -2.9637   26.9695 H   0  0  0  0  0  0
   10.2978   -3.9841   25.7513 H   0  0  0  0  0  0
    8.0402   -4.6600   23.2704 H   0  0  0  0  0  0
    7.2910   -3.1306   21.6980 H   0  0  0  0  0  0
    7.2992   -0.1382   18.2504 H   0  0  0  0  0  0
    5.8248    1.7108   16.8287 H   0  0  0  0  0  0
    3.6858    2.2402   18.4670 H   0  0  0  0  0  0
    5.7479    1.5311   21.6682 H   0  0  0  0  0  0
    5.9770    3.4824   22.8158 H   0  0  0  0  0  0
    7.0189    4.6648   24.6389 H   0  0  0  0  0  0
    8.1856    3.3844   24.8391 H   0  0  0  0  0  0
    8.9257    3.9234   22.3739 H   0  0  0  0  0  0
    8.0008    5.3965   22.5583 H   0  0  0  0  0  0
    8.5351    6.4979   25.1627 H   0  0  0  0  0  0
   10.4748    7.6200   26.2262 H   0  0  0  0  0  0
   12.7885    7.1378   25.4355 H   0  0  0  0  0  0
   11.2258    4.3327   22.5723 H   0  0  0  0  0  0
    4.2500   -0.6610   24.6949 H   0  0  0  0  0  0
    0.3073    2.2502   24.2399 H   0  0  0  0  0  0
    0.1919    3.9992   22.4950 H   0  0  0  0  0  0
    2.1537    4.3627   20.9733 H   0  0  0  0  0  0
    4.1806    3.0060   21.2368 H   0  0  0  0  0  0
    6.3751   -0.3137   24.8764 H   0  0  0  0  0  0
    7.1973   -1.8630   26.4540 H   0  0  0  0  0  0
  1  2  1  0  0  0
  1 41  1  0  0  0
  1 42  1  0  0  0
  1 43  1  0  0  0
  2  3  1  0  0  0
  2  4  1  0  0  0
  2  5  1  0  0  0
  3 44  1  0  0  0
  3 45  1  0  0  0
  3 46  1  0  0  0
  4 47  1  0  0  0
  4 48  1  0  0  0
  4 49  1  0  0  0
  5  6  2  0  0  0
  5 40  1  0  0  0
  6  7  1  0  0  0
  6 50  1  0  0  0
  7  8  2  0  0  0
  7 51  1  0  0  0
  8  9  1  0  0  0
  8 39  1  0  0  0
  9 10  1  0  0  0
  9 17  1  0  0  0
 10 11  2  0  0  0
 10 12  1  0  0  0
 12 13  2  0  0  0
 12 16  1  0  0  0
 13 14  1  0  0  0
 13 52  1  0  0  0
 14 15  2  0  0  0
 14 53  1  0  0  0
 15 16  1  0  0  0
 15 54  1  0  0  0
 17 18  1  0  0  0
 17 30  1  0  0  0
 17 55  1  0  0  0
 18 19  2  0  0  0
 18 20  1  0  0  0
 20 21  1  0  0  0
 20 56  1  0  0  0
 21 22  1  0  0  0
 21 57  1  0  0  0
 21 58  1  0  0  0
 22 23  1  0  0  0
 22 59  1  0  0  0
 22 60  1  0  0  0
 23 24  2  0  0  0
 23 29  1  0  0  0
 24 25  1  0  0  0
 24 61  1  0  0  0
 25 26  2  0  0  0
 25 62  1  0  0  0
 26 27  1  0  0  0
 26 63  1  0  0  0
 27 28  1  0  0  0
 27 29  2  0  0  0
 29 64  1  0  0  0
 30 31  2  0  0  0
 30 38  1  0  0  0
 31 32  1  0  0  0
 31 65  1  0  0  0
 32 33  2  0  0  0
 33 34  1  0  0  0
 33 38  1  0  0  0
 34 35  2  0  0  0
 34 66  1  0  0  0
 35 36  1  0  0  0
 35 67  1  0  0  0
 36 37  2  0  0  0
 36 68  1  0  0  0
 37 38  1  0  0  0
 37 69  1  0  0  0
 39 40  2  0  0  0
 39 70  1  0  0  0
 40 71  1  0  0  0
M  END
> <s_m_entry_id>
1720

> <s_m_entry_name>
Compounds-withfrags-for-validation-docking.1900

> <s_m_Source_Path>
/home/rodolpho/data/melina/maestro/glide-dock_XP_5RGK_M-PRO_VALIDATION

> <s_m_Source_File>
glide-dock_XP_5RGK_M-PRO_VALIDATION_pv.maegz

> <i_m_Source_File_Index>
1720

> <CID>
ALP-POS-02c6a514-34

> <Potency>
37.4742

> <pIC50>
4.42627

> <Source>
Postera

> <smiles>
CC(C)(C)c1ccc(N(C(=O)c2ccco2)C(C(=O)NCCc2cccc(F)c2)c2cnc3ccccn23)cc1

> <Outcome>
Inactive

> <StandardizerResult>
Clear Stereo (ID: ClearStereo)
Wedge Clean (ID: WedgeClean)
Mesomerize (ID: Mesomerize)
Tautomerize (ID: Tautomerize)
Aromatize (ID: Aromatize)
Add Explicit Hydrogens (ID: AddExplicitH)
Neutralize (ID: Neutralize)
Clean 2D (ID: Clean2D)

> <chiral flag>
0

> <version>
0

> <i_lp_mmshare_version>
41011

> <i_f3d_flags>
0

> <s_epik_input>
W0NIM11DKFtDSDNdKShbQ0gzXSljMVtjSF1bY0hdYyhbY0hdW2NIXTEpTihDKD1PKWMyW2NIXVtjSF1bY0hdbzIpW0NAQEhdKGMoW2NIXW4zKW4oYzM0KVtjSF1bY0hdW2NIXVtjSF00KUMoPU8pW05IXVtDSDJdW0NIMl1jNVtjSF1bY0hdW2NIXWMoRilbY0hdNQ==

> <s_epik_cmdline>
J2VwaWtfcHl0aG9uJywgJy1waHQnLCAnMC41JywgJy1waCcsICc3LjQnLCAnLXRuJywgJzgnLCAnLW1hJywgJzIwMCcsICctaW1hZScsICc8aW5maWxlLm1hZT4nLCAnLW9tYWUnLCAnPG91dGZpbGUubWFlPic=

> <r_epik_Ionization_Penalty>
0.0239

> <r_epik_Ionization_Penalty_Charging>
0.0239

> <r_epik_Ionization_Penalty_Neutral>
0.0

> <r_epik_State_Penalty>
0.0194

> <r_epik_Charging_Adjusted_Penalty>
0.0433115

> <i_epik_Tot_Q>
0

> <i_epik_Tot_abs_Q>
0

> <s_lp_Force_Field>
OPLS3

> <r_lp_Energy>
66.6152

> <b_lp_Chiralities_Consistent>
1

> <s_lp_Variant>
ligprep_COVID_compounds-withfrags-smallmolecules-forvalidation.maegz:17-2

> <i_glide_original_lignum>
128

> <s_i_glide_gridfile>
glide-grid_5RGK_M-PRO_COVID

> <i_i_glide_lignum>
128

> <r_i_docking_score>
-4.10980471439993

> <r_i_glide_ligand_efficiency>
-0.102745117859998

> <r_i_glide_ligand_efficiency_sa>
-0.351383359926048

> <r_i_glide_ligand_efficiency_ln>
-0.876500399427855

> <r_glide_XP_GScore>
-4.12919401439993

> <r_i_glide_gscore>
-4.12919401439993

> <r_i_glide_evdw>
-43.1484909057617

> <r_i_glide_ecoul>
-9.397141456604

> <r_i_glide_energy>
-52.5456323623657

> <r_i_glide_einternal>
7.43213605880737

> <r_i_glide_emodel>
-65.5538322569718

> <r_glide_XP_HBond>
-0.283546962119768

> <i_i_glide_confnum>
2

> <i_i_glide_posenum>
2

> <r_i_glide_eff_state_penalty>
0.0193893

> <i_glide_XP_PoseRank>
1

> <MW>
538.24

> <cLogP>
6.11

> <TPSA>
79.85

> <Rotatable Bonds>
8

> <Fraction sp3>
0.22

> <HBA>
5

> <HBD>
1

> <r_lp_tautomer_probability>


> <s_epik_Chemistry_Notes>


> <Structure ID>


> <Submission Fragments>


$$$$
ligprep_COVID_compounds-withfrags-smallmolecules-forvalidation.maegz:29
                    3D
 Structure written by MMmdl.
 71 75  0  0  1  0            999 V2000
    6.1369   -4.6029   25.8221 O   0  0  0  0  0  0
    6.4270   -5.5062   26.6077 C   0  0  0  0  0  0
    7.6847   -5.7852   26.9896 N   0  0  0  0  0  0
    8.7330   -4.7841   27.1660 C   0  0  0  0  0  0
    9.5771   -4.5545   25.8964 C   0  0  0  0  0  0
    8.7278   -4.1776   24.6925 C   0  0  0  0  0  0
    8.3284   -2.8513   24.4978 C   0  0  0  0  0  0
    7.5526   -2.5071   23.3900 C   0  0  0  0  0  0
    7.1737   -3.4866   22.4717 C   0  0  0  0  0  0
    7.5707   -4.8106   22.6602 C   0  0  0  0  0  0
    7.2038   -5.7598   21.7698 F   0  0  0  0  0  0
    8.3463   -5.1556   23.7678 C   0  0  0  0  0  0
    5.3091   -6.3733   27.2559 C   0  0  1  0  0  0
    5.1453   -6.1988   28.7714 C   0  0  0  0  0  0
    3.9126   -6.4117   29.4148 C   0  0  0  0  0  0
    3.8011   -6.2825   30.7994 C   0  0  0  0  0  0
    4.9415   -5.9543   31.5290 C   0  0  0  0  0  0
    6.1525   -5.7633   30.9517 N   0  0  0  0  0  0
    6.2380   -5.8914   29.6031 C   0  0  0  0  0  0
    4.0223   -6.2866   26.4848 N   0  0  0  0  0  0
    3.9800   -6.4724   25.1207 C   0  0  0  0  0  0
    4.9527   -6.2729   24.3899 O   0  0  0  0  0  0
    2.7526   -6.9054   24.4913 C   0  0  0  0  0  0
    1.7480   -7.7887   24.8869 C   0  0  0  0  0  0
    0.8768   -7.9310   23.8065 C   0  0  0  0  0  0
    1.4177   -7.1872   22.7733 C   0  0  0  0  0  0
    2.5716   -6.5965   23.1773 O   0  0  0  0  0  0
    2.8222   -6.0547   27.3347 C   0  0  2  0  0  0
    1.6591   -7.0622   27.1369 C   0  0  0  0  0  0
    0.5206   -6.8376   28.1513 C   0  0  0  0  0  0
    0.0112   -5.3836   28.1363 C   0  0  0  0  0  0
    1.1605   -4.3677   28.3420 C   0  0  2  0  0  0
    0.6700   -2.9181   28.3439 C   0  0  0  0  0  0
    0.8248   -2.1127   29.4804 C   0  0  0  0  0  0
    0.3723   -0.7930   29.4791 C   0  0  0  0  0  0
   -0.2402   -0.2661   28.3425 C   0  0  0  0  0  0
   -0.6778    1.0137   28.3445 F   0  0  0  0  0  0
   -0.4010   -1.0604   27.2065 C   0  0  0  0  0  0
   -0.9964   -0.5543   26.1026 F   0  0  0  0  0  0
    0.0519   -2.3804   27.2078 C   0  0  0  0  0  0
    2.3027   -4.5952   27.3246 C   0  0  0  0  0  0
    7.9359   -6.7435   27.1846 H   0  0  0  0  0  0
    8.2503   -3.8496   27.4546 H   0  0  0  0  0  0
    9.3758   -5.0591   28.0055 H   0  0  0  0  0  0
   10.3132   -3.7666   26.0661 H   0  0  0  0  0  0
   10.1556   -5.4497   25.6619 H   0  0  0  0  0  0
    8.6189   -2.0859   25.2027 H   0  0  0  0  0  0
    7.2458   -1.4820   23.2427 H   0  0  0  0  0  0
    6.5734   -3.2194   21.6145 H   0  0  0  0  0  0
    8.6506   -6.1832   23.9056 H   0  0  0  0  0  0
    5.6704   -7.3948   27.1445 H   0  0  0  0  0  0
    3.0295   -6.6735   28.8527 H   0  0  0  0  0  0
    2.8532   -6.4357   31.2935 H   0  0  0  0  0  0
    4.8961   -5.8451   32.6025 H   0  0  0  0  0  0
    7.2284   -5.7448   29.1983 H   0  0  0  0  0  0
    1.6516   -8.2760   25.8452 H   0  0  0  0  0  0
   -0.0229   -8.5275   23.7731 H   0  0  0  0  0  0
    1.1223   -7.0100   21.7497 H   0  0  0  0  0  0
    3.1141   -6.2556   28.3613 H   0  0  0  0  0  0
    1.2501   -6.9913   26.1290 H   0  0  0  0  0  0
    2.0304   -8.0821   27.2409 H   0  0  0  0  0  0
   -0.3023   -7.5226   27.9435 H   0  0  0  0  0  0
    0.8748   -7.0858   29.1533 H   0  0  0  0  0  0
   -0.4898   -5.1957   27.1855 H   0  0  0  0  0  0
   -0.7453   -5.2562   28.9122 H   0  0  0  0  0  0
    1.5761   -4.5533   29.3348 H   0  0  0  0  0  0
    1.2958   -2.5069   30.3690 H   0  0  0  0  0  0
    0.4962   -0.1793   30.3593 H   0  0  0  0  0  0
   -0.0812   -2.9830   26.3213 H   0  0  0  0  0  0
    3.1243   -3.9085   27.5320 H   0  0  0  0  0  0
    1.9487   -4.3458   26.3244 H   0  0  0  0  0  0
  1  2  2  0  0  0
  2  3  1  0  0  0
  2 13  1  0  0  0
  3  4  1  0  0  0
  3 42  1  0  0  0
  4  5  1  0  0  0
  4 43  1  0  0  0
  4 44  1  0  0  0
  5  6  1  0  0  0
  5 45  1  0  0  0
  5 46  1  0  0  0
  6  7  2  0  0  0
  6 12  1  0  0  0
  7  8  1  0  0  0
  7 47  1  0  0  0
  8  9  2  0  0  0
  8 48  1  0  0  0
  9 10  1  0  0  0
  9 49  1  0  0  0
 10 11  1  0  0  0
 10 12  2  0  0  0
 12 50  1  0  0  0
 13 14  1  0  0  0
 13 20  1  0  0  0
 13 51  1  0  0  0
 14 15  2  0  0  0
 14 19  1  0  0  0
 15 16  1  0  0  0
 15 52  1  0  0  0
 16 17  2  0  0  0
 16 53  1  0  0  0
 17 18  1  0  0  0
 17 54  1  0  0  0
 18 19  2  0  0  0
 19 55  1  0  0  0
 20 21  1  0  0  0
 20 28  1  0  0  0
 21 22  2  0  0  0
 21 23  1  0  0  0
 23 24  2  0  0  0
 23 27  1  0  0  0
 24 25  1  0  0  0
 24 56  1  0  0  0
 25 26  2  0  0  0
 25 57  1  0  0  0
 26 27  1  0  0  0
 26 58  1  0  0  0
 28 29  1  0  0  0
 28 41  1  0  0  0
 28 59  1  0  0  0
 29 30  1  0  0  0
 29 60  1  0  0  0
 29 61  1  0  0  0
 30 31  1  0  0  0
 30 62  1  0  0  0
 30 63  1  0  0  0
 31 32  1  0  0  0
 31 64  1  0  0  0
 31 65  1  0  0  0
 32 33  1  0  0  0
 32 41  1  0  0  0
 32 66  1  0  0  0
 33 34  2  0  0  0
 33 40  1  0  0  0
 34 35  1  0  0  0
 34 67  1  0  0  0
 35 36  2  0  0  0
 35 68  1  0  0  0
 36 37  1  0  0  0
 36 38  1  0  0  0
 38 39  1  0  0  0
 38 40  2  0  0  0
 40 69  1  0  0  0
 41 70  1  0  0  0
 41 71  1  0  0  0
M  END
> <s_m_entry_id>
1731

> <s_m_entry_name>
Compounds-withfrags-for-validation-docking.1888

> <s_m_Source_Path>
/home/rodolpho/data/melina/maestro/glide-dock_XP_5RGK_M-PRO_VALIDATION

> <s_m_Source_File>
glide-dock_XP_5RGK_M-PRO_VALIDATION_pv.maegz

> <i_m_Source_File_Index>
1731

> <CID>
ALP-POS-b0bc6a46-26

> <Potency>
99.5

> <pIC50>
4.00218

> <Source>
Postera

> <smiles>
O=C(NCCc1cccc(F)c1)C(c1cccnc1)N(C(=O)c1ccco1)C1CCCC(c2ccc(F)c(F)c2)C1

> <Outcome>
Inactive

> <StandardizerResult>
Clear Stereo (ID: ClearStereo)
Wedge Clean (ID: WedgeClean)
Mesomerize (ID: Mesomerize)
Tautomerize (ID: Tautomerize)
Aromatize (ID: Aromatize)
Add Explicit Hydrogens (ID: AddExplicitH)
Neutralize (ID: Neutralize)
Clean 2D (ID: Clean2D)

> <chiral flag>
0

> <version>
0

> <i_lp_mmshare_version>
41011

> <i_f3d_flags>
0

> <s_epik_input>
RmMoW2NIXTEpW2NIXVtjSF1bY0hdYzFbQ0gyXVtDSDJdW05IXUMoPU8pW0NAQEhdKGMyW2NIXVtjSF1bY0hdbltjSF0yKU4oQyg9TyljM1tjSF1bY0hdW2NIXW8zKVtDQEBIXTRbQ0gyXVtDSDJdW0NIMl1bQ0BASF0oW0NIMl00KWM1W2NIXVtjSF1jKEYpYyhGKVtjSF01

> <s_epik_cmdline>
J2VwaWtfcHl0aG9uJywgJy1waHQnLCAnMC41JywgJy1waCcsICc3LjQnLCAnLXRuJywgJzgnLCAnLW1hJywgJzIwMCcsICctaW1hZScsICc8aW5maWxlLm1hZT4nLCAnLW9tYWUnLCAnPG91dGZpbGUubWFlPic=

> <r_lp_tautomer_probability>
1.0

> <r_epik_Ionization_Penalty>
8.0E-4

> <r_epik_Ionization_Penalty_Charging>
0.0

> <r_epik_Ionization_Penalty_Neutral>
8.0E-4

> <r_epik_State_Penalty>
0.0

> <r_epik_Charging_Adjusted_Penalty>
0.0

> <i_epik_Tot_Q>
0

> <i_epik_Tot_abs_Q>
0

> <s_lp_Force_Field>
OPLS3

> <r_lp_Energy>
64.2213

> <b_lp_Chiralities_Consistent>
1

> <s_lp_Variant>
ligprep_COVID_compounds-withfrags-smallmolecules-forvalidation.maegz:29-5

> <i_glide_original_lignum>
157

> <s_i_glide_gridfile>
glide-grid_5RGK_M-PRO_COVID

> <i_i_glide_lignum>
157

> <r_i_docking_score>
-4.10409290025275

> <r_i_glide_ligand_efficiency>
-0.100099826835433

> <r_i_glide_ligand_efficiency_sa>
-0.345165948225999

> <r_i_glide_ligand_efficiency_ln>
-0.870696966583625

> <r_glide_XP_GScore>
-4.10409290025275

> <r_i_glide_gscore>
-4.10409290025275

> <r_i_glide_evdw>
-36.1166229248047

> <r_i_glide_ecoul>
-10.5867643356323

> <r_i_glide_energy>
-46.703387260437

> <r_i_glide_einternal>
1.95656955242157

> <r_i_glide_emodel>
-61.5680220771263

> <r_glide_XP_HBond>
-0.728261991483044

> <i_i_glide_confnum>
2

> <i_i_glide_posenum>
9

> <r_i_glide_eff_state_penalty>
0.0

> <i_glide_XP_PoseRank>
1

> <MW>
561.22

> <cLogP>
6.36

> <TPSA>
75.44

> <Rotatable Bonds>
9

> <Fraction sp3>
0.28

> <HBA>
4

> <HBD>
1

> <s_epik_Chemistry_Notes>


> <Structure ID>


> <Submission Fragments>


$$$$
ligprep_COVID_compounds-withfrags-smallmolecules-forvalidation.maegz:6
                    3D
 Structure written by MMmdl.
 56 59  0  0  1  0            999 V2000
    1.3052    1.5063   20.7886 C   0  0  0  0  0  0
    2.5977    2.3277   20.9571 C   0  0  2  0  0  0
    3.8273    1.5083   20.4927 C   0  0  0  0  0  0
    4.1190    1.4363   19.1112 C   0  0  0  0  0  0
    5.2434    0.7497   18.6275 C   0  0  0  0  0  0
    6.1202    0.1310   19.5294 C   0  0  0  0  0  0
    5.8644    0.1810   20.9125 C   0  0  0  0  0  0
    6.7742   -0.4346   21.7330 O   0  0  0  0  0  0
    4.7012    0.8519   21.4096 C   0  0  0  0  0  0
    4.3748    0.8659   22.8705 C   0  0  0  0  0  0
    5.0330    0.2436   23.7044 O   0  0  0  0  0  0
    3.1745    1.6245   23.3001 C   0  0  0  0  0  0
    2.7888    2.8214   22.4373 C   0  0  2  0  0  0
    1.6473    3.6728   23.1092 C   0  0  2  0  0  0
    0.5346    2.8145   23.8226 C   0  0  2  0  0  0
   -0.7204    3.5293   24.4454 C   0  0  2  0  0  0
   -1.4520    4.3289   23.4308 N   0  0  0  0  0  0
   -2.8874    4.0663   23.4072 C   0  0  0  0  0  0
   -1.2321    5.7749   23.4780 C   0  0  0  0  0  0
   -0.5459    4.0949   25.8990 C   0  0  0  0  0  0
   -1.5776    4.7390   26.2076 O   0  5  0  0  0  0
    0.6003    3.7792   26.6512 C   0  0  0  0  0  0
    0.7222    4.3862   28.0015 C   0  0  0  0  0  0
    1.7863    4.0012   28.7063 N   0  0  0  0  0  0
   -0.0476    5.1892   28.5258 O   0  0  0  0  0  0
    1.6311    2.8481   26.0903 C   0  0  0  0  0  0
    2.7756    2.7428   26.5449 O   0  0  0  0  0  0
    1.2059    1.9399   24.9127 C   0  0  2  0  0  0
    2.4425    1.2132   24.3628 C   0  0  0  0  0  0
    2.6908    0.0801   25.0503 O   0  0  0  0  0  0
    0.2593    0.9967   25.4011 O   0  0  0  0  0  0
    1.1734    4.6020   22.1603 O   0  0  0  0  0  0
    2.3750    3.4385   20.0977 O   0  0  0  0  0  0
    1.2683    0.6413   21.4485 H   0  0  0  0  0  0
    1.1944    1.1537   19.7709 H   0  0  0  0  0  0
    0.4185    2.1106   20.9750 H   0  0  0  0  0  0
    3.4807    1.9347   18.3995 H   0  0  0  0  0  0
    5.4354    0.7130   17.5662 H   0  0  0  0  0  0
    6.9913   -0.3862   19.1557 H   0  0  0  0  0  0
    7.6047   -0.6985   21.3482 H   0  0  0  0  0  0
    3.6664    3.4709   22.4229 H   0  0  0  0  0  0
    2.1145    4.2999   23.8687 H   0  0  0  0  0  0
    0.1221    2.1325   23.0851 H   0  0  0  0  0  0
   -1.3929    2.6848   24.5989 H   0  0  0  0  0  0
   -3.3622    4.6145   22.5927 H   0  0  0  0  0  0
   -3.3664    4.3635   24.3406 H   0  0  0  0  0  0
   -3.0839    3.0061   23.2456 H   0  0  0  0  0  0
   -1.4954    6.2214   22.5196 H   0  0  0  0  0  0
   -0.1902    6.0176   23.6852 H   0  0  0  0  0  0
   -1.8392    6.2613   24.2414 H   0  0  0  0  0  0
    2.4490    3.3761   28.2611 H   0  0  0  0  0  0
    1.9365    4.3662   29.6334 H   0  0  0  0  0  0
    3.5033   -0.2831   24.7195 H   0  0  0  0  0  0
   -0.3475    1.4655   25.9557 H   0  0  0  0  0  0
    1.4314    4.2893   21.2949 H   0  0  0  0  0  0
    3.2333    3.8344   19.8935 H   0  0  0  0  0  0
  1  2  1  0  0  0
  1 34  1  0  0  0
  1 35  1  0  0  0
  1 36  1  0  0  0
  2  3  1  0  0  0
  2 33  1  0  0  0
  2 13  1  0  0  0
  3  4  2  0  0  0
  3  9  1  0  0  0
  4  5  1  0  0  0
  4 37  1  0  0  0
  5  6  2  0  0  0
  5 38  1  0  0  0
  6  7  1  0  0  0
  6 39  1  0  0  0
  7  8  1  0  0  0
  7  9  2  0  0  0
  8 40  1  0  0  0
  9 10  1  0  0  0
 10 11  2  0  0  0
 10 12  1  0  0  0
 12 13  1  0  0  0
 12 29  2  0  0  0
 13 14  1  0  0  0
 13 41  1  0  0  0
 14 15  1  0  0  0
 14 32  1  0  0  0
 14 42  1  0  0  0
 15 16  1  0  0  0
 15 28  1  0  0  0
 15 43  1  0  0  0
 16 17  1  0  0  0
 16 20  1  0  0  0
 16 44  1  0  0  0
 17 18  1  0  0  0
 17 19  1  0  0  0
 18 45  1  0  0  0
 18 46  1  0  0  0
 18 47  1  0  0  0
 19 48  1  0  0  0
 19 49  1  0  0  0
 19 50  1  0  0  0
 20 21  1  0  0  0
 20 22  2  0  0  0
 22 23  1  0  0  0
 22 26  1  0  0  0
 23 24  1  0  0  0
 23 25  2  0  0  0
 24 51  1  0  0  0
 24 52  1  0  0  0
 26 27  2  0  0  0
 26 28  1  0  0  0
 28 29  1  0  0  0
 28 31  1  0  0  0
 29 30  1  0  0  0
 30 53  1  0  0  0
 31 54  1  0  0  0
 32 55  1  0  0  0
 33 56  1  0  0  0
M  CHG  1  21  -1
M  END
> <s_m_entry_id>
1734

> <s_m_entry_name>
Compounds-withfrags-for-validation-docking.1911

> <s_m_Source_Path>
/home/rodolpho/data/melina/maestro/glide-dock_XP_5RGK_M-PRO_VALIDATION

> <s_m_Source_File>
glide-dock_XP_5RGK_M-PRO_VALIDATION_pv.maegz

> <i_m_Source_File_Index>
1734

> <CID>
Oxitetracyclin

> <Potency>
15.15

> <pIC50>
4.81959

> <Source>
https://doi.org/10.1101/2020.03.23.004580

> <smiles>
C(C1(C2=C(C(=C(C(O[H])=C2C(O[H])=C2C1(C(C1(C(N(C([H])([H])[H])C([H])([H])[H])([H])C(=O)C(=C(N([H])[H])O[H])C(=O)C1(C2=O)O[H])[H])(O[H])[H])[H])[H])[H])[H])O[H])([H])([H])[H]

> <Outcome>
Inactive

> <StandardizerResult>
Clear Stereo (ID: ClearStereo)
Wedge Clean (ID: WedgeClean)
Mesomerize (ID: Mesomerize)
Tautomerize (ID: Tautomerize)
Aromatize (ID: Aromatize)
Add Explicit Hydrogens (ID: AddExplicitH)
Neutralize (ID: Neutralize)
Clean 2D (ID: Clean2D)

> <chiral flag>
0

> <version>
0

> <i_lp_mmshare_version>
41011

> <i_f3d_flags>
0

> <s_epik_input>
W09IXWMxW2NIXVtjSF1bY0hdYyhbQ0BdMihbQ0gzXSlbT0hdKWMxQyg9TylDKD1DM1tPSF0pW0NAQEhdMltDQEBIXShbT0hdKVtDQEBIXShbQ0BAXTM0W09IXSlbQ0BIXShOKFtDSDNdKVtDSDNdKUMoPU8pW0NASF0oQzQ9TylDKD1PKVtOSDJd

> <s_epik_cmdline>
J2VwaWtfcHl0aG9uJywgJy1waHQnLCAnMC41JywgJy1waCcsICc3LjQnLCAnLXRuJywgJzgnLCAnLW1hJywgJzIwMCcsICctaW1hZScsICc8aW5maWxlLm1hZT4nLCAnLW9tYWUnLCAnPG91dGZpbGUubWFlPic=

> <r_epik_Ionization_Penalty>
0.3646

> <r_epik_Ionization_Penalty_Charging>
0.0013

> <r_epik_Ionization_Penalty_Neutral>
0.3633

> <r_epik_State_Penalty>
0.3215

> <r_epik_Charging_Adjusted_Penalty>
0.322822

> <i_epik_Tot_Q>
-1

> <i_epik_Tot_abs_Q>
1

> <s_lp_Force_Field>
OPLS3

> <r_lp_Energy>
64.3949

> <b_lp_Chiralities_Consistent>
1

> <s_lp_Variant>
ligprep_COVID_compounds-withfrags-smallmolecules-forvalidation.maegz:6-21

> <i_glide_original_lignum>
73

> <s_i_glide_gridfile>
glide-grid_5RGK_M-PRO_COVID

> <i_i_glide_lignum>
73

> <r_i_docking_score>
-4.10192101690742

> <r_i_glide_ligand_efficiency>
-0.124300636875982

> <r_i_glide_ligand_efficiency_sa>
-0.398698559555375

> <r_i_glide_ligand_efficiency_ln>
-0.912245995549851

> <r_glide_XP_GScore>
-4.42341801690742

> <r_i_glide_gscore>
-4.42341801690742

> <r_i_glide_evdw>
-18.5172271728516

> <r_i_glide_ecoul>
-7.93721485137939

> <r_i_glide_energy>
-26.454442024231

> <r_i_glide_einternal>
3.47295522689819

> <r_i_glide_emodel>
-27.4036169096393

> <r_glide_XP_HBond>
-1.44

> <i_i_glide_confnum>
1

> <i_i_glide_posenum>
30

> <r_i_glide_eff_state_penalty>
0.321497

> <i_glide_XP_PoseRank>
1

> <r_lp_tautomer_probability>


> <s_epik_Chemistry_Notes>


> <MW>


> <cLogP>


> <TPSA>


> <Rotatable Bonds>


> <Fraction sp3>


> <HBA>


> <HBD>


> <Structure ID>


> <Submission Fragments>


$$$$
ligprep_COVID_compounds-withfrags-smallmolecules-forvalidation.maegz:6
                    3D
 Structure written by MMmdl.
 57 60  0  0  1  0            999 V2000
    5.9940    1.8779   23.3709 C   0  0  0  0  0  0
    4.7207    1.2306   22.7780 C   0  0  2  0  0  0
    5.1432    0.4973   21.4944 C   0  0  0  0  0  0
    6.0113   -0.6086   21.6091 C   0  0  0  0  0  0
    6.5230   -1.2365   20.4663 C   0  0  0  0  0  0
    6.2561   -0.7147   19.1932 C   0  0  0  0  0  0
    5.3836    0.3750   19.0498 C   0  0  0  0  0  0
    5.1747    0.8405   17.7804 O   0  0  0  0  0  0
    4.7476    0.9304   20.1978 C   0  0  0  0  0  0
    3.5749    1.8361   20.0610 C   0  0  0  0  0  0
    3.1749    2.2363   18.9714 O   0  0  0  0  0  0
    2.7918    2.0336   21.2933 C   0  0  0  0  0  0
    3.6179    2.3201   22.5326 C   0  0  1  0  0  0
    2.7059    2.8246   23.6962 C   0  0  1  0  0  0
    1.4440    1.9461   23.8454 C   0  0  1  0  0  0
    0.5844    2.0947   25.1261 C   0  0  1  0  0  0
   -0.1133    3.4261   25.1950 N   0  3  0  0  0  0
   -1.5661    3.4181   25.5114 C   0  0  0  0  0  0
    0.5994    4.4282   26.0205 C   0  0  0  0  0  0
   -0.3743    0.8837   25.2182 C   0  0  0  0  0  0
   -0.5658    0.6747   26.4434 O   0  5  0  0  0  0
   -0.7980    0.2147   24.0456 C   0  0  0  0  0  0
   -1.6696   -0.9839   24.1317 C   0  0  0  0  0  0
   -2.0516   -1.3236   25.3610 N   0  0  0  0  0  0
   -2.0564   -1.6774   23.1941 O   0  0  0  0  0  0
   -0.3539    0.6736   22.6798 C   0  0  0  0  0  0
   -0.7052    0.1115   21.6409 O   0  0  0  0  0  0
    0.5618    1.9282   22.5649 C   0  0  2  0  0  0
    1.4421    1.9354   21.2996 C   0  0  0  0  0  0
    0.7065    1.9066   20.1722 O   0  0  0  0  0  0
   -0.2674    3.0740   22.4805 O   0  0  0  0  0  0
    3.4266    2.9720   24.9059 O   0  0  0  0  0  0
    4.2401    0.2987   23.7277 O   0  0  0  0  0  0
    6.4648    2.5375   22.6393 H   0  0  0  0  0  0
    6.7390    1.1344   23.6559 H   0  0  0  0  0  0
    5.8013    2.4860   24.2490 H   0  0  0  0  0  0
    6.3046   -0.9836   22.5780 H   0  0  0  0  0  0
    7.1760   -2.0883   20.5741 H   0  0  0  0  0  0
    6.7029   -1.1724   18.3226 H   0  0  0  0  0  0
    4.4867    1.4983   17.7458 H   0  0  0  0  0  0
    4.1691    3.2083   22.2372 H   0  0  0  0  0  0
    2.3659    3.8280   23.4348 H   0  0  0  0  0  0
    1.8572    0.9417   23.9417 H   0  0  0  0  0  0
    1.2763    2.0429   25.9710 H   0  0  0  0  0  0
   -1.7530    3.0717   26.5292 H   0  0  0  0  0  0
   -2.1257    2.7912   24.8158 H   0  0  0  0  0  0
   -1.9794    4.4232   25.4237 H   0  0  0  0  0  0
    0.6282    4.1161   27.0656 H   0  0  0  0  0  0
    0.1018    5.3975   25.9701 H   0  0  0  0  0  0
    1.6214    4.5802   25.6805 H   0  0  0  0  0  0
   -1.6887   -0.7439   26.1183 H   0  0  0  0  0  0
   -2.6475   -2.1198   25.5239 H   0  0  0  0  0  0
    1.3018    2.0573   19.4476 H   0  0  0  0  0  0
   -0.7061    3.0205   21.6407 H   0  0  0  0  0  0
    4.1265    3.5920   24.7549 H   0  0  0  0  0  0
    4.8903   -0.3786   23.8448 H   0  0  0  0  0  0
   -0.0838    3.7404   24.2291 H   0  0  0  0  0  0
  1  2  1  0  0  0
  1 34  1  0  0  0
  1 35  1  0  0  0
  1 36  1  0  0  0
  2  3  1  0  0  0
  2 33  1  0  0  0
  2 13  1  0  0  0
  3  4  2  0  0  0
  3  9  1  0  0  0
  4  5  1  0  0  0
  4 37  1  0  0  0
  5  6  2  0  0  0
  5 38  1  0  0  0
  6  7  1  0  0  0
  6 39  1  0  0  0
  7  8  1  0  0  0
  7  9  2  0  0  0
  8 40  1  0  0  0
  9 10  1  0  0  0
 10 11  2  0  0  0
 10 12  1  0  0  0
 12 13  1  0  0  0
 12 29  2  0  0  0
 13 14  1  0  0  0
 13 41  1  0  0  0
 14 15  1  0  0  0
 14 32  1  0  0  0
 14 42  1  0  0  0
 15 16  1  0  0  0
 15 28  1  0  0  0
 15 43  1  0  0  0
 16 17  1  0  0  0
 16 20  1  0  0  0
 16 44  1  0  0  0
 17 18  1  0  0  0
 17 19  1  0  0  0
 17 57  1  0  0  0
 18 45  1  0  0  0
 18 46  1  0  0  0
 18 47  1  0  0  0
 19 48  1  0  0  0
 19 49  1  0  0  0
 19 50  1  0  0  0
 20 21  1  0  0  0
 20 22  2  0  0  0
 22 23  1  0  0  0
 22 26  1  0  0  0
 23 24  1  0  0  0
 23 25  2  0  0  0
 24 51  1  0  0  0
 24 52  1  0  0  0
 26 27  2  0  0  0
 26 28  1  0  0  0
 28 29  1  0  0  0
 28 31  1  0  0  0
 29 30  1  0  0  0
 30 53  1  0  0  0
 31 54  1  0  0  0
 32 55  1  0  0  0
 33 56  1  0  0  0
M  CHG  2  17   1  21  -1
M  END
> <s_m_entry_id>
1764

> <s_m_entry_name>
Compounds-withfrags-for-validation-docking.1911

> <s_m_Source_Path>
/home/rodolpho/data/melina/maestro/glide-dock_XP_5RGK_M-PRO_VALIDATION

> <s_m_Source_File>
glide-dock_XP_5RGK_M-PRO_VALIDATION_pv.maegz

> <i_m_Source_File_Index>
1764

> <CID>
Oxitetracyclin

> <Potency>
15.15

> <pIC50>
4.81959

> <Source>
https://doi.org/10.1101/2020.03.23.004580

> <smiles>
C(C1(C2=C(C(=C(C(O[H])=C2C(O[H])=C2C1(C(C1(C(N(C([H])([H])[H])C([H])([H])[H])([H])C(=O)C(=C(N([H])[H])O[H])C(=O)C1(C2=O)O[H])[H])(O[H])[H])[H])[H])[H])[H])O[H])([H])([H])[H]

> <Outcome>
Inactive

> <StandardizerResult>
Clear Stereo (ID: ClearStereo)
Wedge Clean (ID: WedgeClean)
Mesomerize (ID: Mesomerize)
Tautomerize (ID: Tautomerize)
Aromatize (ID: Aromatize)
Add Explicit Hydrogens (ID: AddExplicitH)
Neutralize (ID: Neutralize)
Clean 2D (ID: Clean2D)

> <chiral flag>
0

> <version>
0

> <i_lp_mmshare_version>
41011

> <i_f3d_flags>
0

> <s_epik_input>
W09IXWMxW2NIXVtjSF1bY0hdYyhbQ0BdMihbQ0gzXSlbT0hdKWMxQyg9TylDKD1DM1tPSF0pW0NASF0yW0NASF0oW09IXSlbQ0BIXShbQ0BAXTM0W09IXSlbQ0BASF0oTihbQ0gzXSlbQ0gzXSlDKD1PKVtDQEhdKEM0PU8pQyg9TylbTkgyXQ==

> <s_epik_cmdline>
J2VwaWtfcHl0aG9uJywgJy1waHQnLCAnMC41JywgJy1waCcsICc3LjQnLCAnLXRuJywgJzgnLCAnLW1hJywgJzIwMCcsICctaW1hZScsICc8aW5maWxlLm1hZT4nLCAnLW9tYWUnLCAnPG91dGZpbGUubWFlPic=

> <r_epik_Ionization_Penalty>
0.6144

> <r_epik_Ionization_Penalty_Charging>
0.5087

> <r_epik_Ionization_Penalty_Neutral>
0.1057

> <r_epik_State_Penalty>
0.5157

> <r_epik_Charging_Adjusted_Penalty>
1.02439

> <i_epik_Tot_Q>
0

> <i_epik_Tot_abs_Q>
2

> <s_lp_Force_Field>
OPLS3

> <r_lp_Energy>
60.0055

> <b_lp_Chiralities_Consistent>
1

> <s_lp_Variant>
ligprep_COVID_compounds-withfrags-smallmolecules-forvalidation.maegz:6-30

> <i_glide_original_lignum>
82

> <s_i_glide_gridfile>
glide-grid_5RGK_M-PRO_COVID

> <i_i_glide_lignum>
82

> <r_i_docking_score>
-4.07783795570598

> <r_i_glide_ligand_efficiency>
-0.123570847142606

> <r_i_glide_ligand_efficiency_sa>
-0.396357733934618

> <r_i_glide_ligand_efficiency_ln>
-0.906890047434068

> <r_glide_XP_GScore>
-4.59354495570598

> <r_i_glide_gscore>
-4.59354495570598

> <r_i_glide_evdw>
-25.374324798584

> <r_i_glide_ecoul>
-9.63791561126709

> <r_i_glide_energy>
-35.0122404098511

> <r_i_glide_einternal>
3.74498081207275

> <r_i_glide_emodel>
-32.6229019165039

> <r_glide_XP_HBond>
-3.06086053864928

> <i_i_glide_confnum>
1

> <i_i_glide_posenum>
3

> <r_i_glide_eff_state_penalty>
0.515707

> <i_glide_XP_PoseRank>
1

> <r_lp_tautomer_probability>


> <s_epik_Chemistry_Notes>


> <MW>


> <cLogP>


> <TPSA>


> <Rotatable Bonds>


> <Fraction sp3>


> <HBA>


> <HBD>


> <Structure ID>


> <Submission Fragments>


$$$$
ligprep_COVID_compounds-withfrags-smallmolecules-forvalidation.maegz:6
                    3D
 Structure written by MMmdl.
 57 60  0  0  1  0            999 V2000
    1.3668    1.5054   20.8090 C   0  0  0  0  0  0
    2.6539    2.3709   20.8330 C   0  0  2  0  0  0
    3.8388    1.5175   20.3428 C   0  0  0  0  0  0
    4.1286    1.4354   18.9707 C   0  0  0  0  0  0
    5.1911    0.6863   18.4898 C   0  0  0  0  0  0
    5.9923   -0.0092   19.3788 C   0  0  0  0  0  0
    5.7305    0.0336   20.7461 C   0  0  0  0  0  0
    6.5889   -0.6939   21.5347 O   0  0  0  0  0  0
    4.6454    0.7926   21.2621 C   0  0  0  0  0  0
    4.3446    0.8040   22.7551 C   0  0  0  0  0  0
    4.9612    0.0830   23.5426 O   0  0  0  0  0  0
    3.2969    1.7612   23.2046 C   0  0  0  0  0  0
    3.0067    2.9405   22.2494 C   0  0  2  0  0  0
    1.9667    3.9595   22.8343 C   0  0  1  0  0  0
    1.9567    4.0249   24.3874 C   0  0  2  0  0  0
    3.2687    4.6643   24.9801 C   0  0  1  0  0  0
    3.0847    6.2130   24.9145 N   0  3  0  0  0  0
    3.9052    6.8872   23.7963 C   0  0  0  0  0  0
    3.2549    6.9563   26.2575 C   0  0  0  0  0  0
    3.6164    4.1418   26.3934 C   0  0  0  0  0  0
    4.7682    4.6066   26.7490 O   0  5  0  0  0  0
    2.8711    3.2707   27.1410 C   0  0  0  0  0  0
    3.2815    2.8739   28.4942 C   0  0  0  0  0  0
    2.8710    3.6593   29.4982 N   0  0  0  0  0  0
    3.9577    1.8723   28.7262 O   0  0  0  0  0  0
    1.6335    2.7291   26.5287 C   0  0  0  0  0  0
    0.6787    2.3613   27.2215 O   0  0  0  0  0  0
    1.6251    2.6153   24.9684 C   0  0  2  0  0  0
    2.6521    1.6043   24.3974 C   0  0  0  0  0  0
    2.7761    0.5088   25.2089 O   0  0  0  0  0  0
    0.3265    2.1955   24.5616 O   0  0  0  0  0  0
    2.1155    5.2479   22.2628 O   0  0  0  0  0  0
    2.3750    3.4574   19.9604 O   0  0  0  0  0  0
    1.4417    0.6498   21.4811 H   0  0  0  0  0  0
    1.1752    1.1067   19.8113 H   0  0  0  0  0  0
    0.4770    2.0630   21.1006 H   0  0  0  0  0  0
    3.5177    1.9637   18.2536 H   0  0  0  0  0  0
    5.3926    0.6464   17.4294 H   0  0  0  0  0  0
    6.8213   -0.5884   18.9979 H   0  0  0  0  0  0
    7.3936   -0.9469   21.0770 H   0  0  0  0  0  0
    3.9514    3.4845   22.1651 H   0  0  0  0  0  0
    0.9664    3.6612   22.5248 H   0  0  0  0  0  0
    1.1150    4.6649   24.6649 H   0  0  0  0  0  0
    4.1003    4.4263   24.3139 H   0  0  0  0  0  0
    4.9618    6.8204   24.0554 H   0  0  0  0  0  0
    3.5748    7.9248   23.7407 H   0  0  0  0  0  0
    3.6826    6.3619   22.8670 H   0  0  0  0  0  0
    4.3128    6.9413   26.5232 H   0  0  0  0  0  0
    2.6480    6.4430   27.0033 H   0  0  0  0  0  0
    2.9000    7.9755   26.1017 H   0  0  0  0  0  0
    2.3268    4.4878   29.3097 H   0  0  0  0  0  0
    3.1176    3.4310   30.4500 H   0  0  0  0  0  0
    3.4079   -0.1042   24.8262 H   0  0  0  0  0  0
    0.3021    2.1668   23.6022 H   0  0  0  0  0  0
    3.0232    5.3450   21.9643 H   0  0  0  0  0  0
    3.1997    3.9072   19.7639 H   0  0  0  0  0  0
    2.1174    6.3421   24.6514 H   0  0  0  0  0  0
  1  2  1  0  0  0
  1 34  1  0  0  0
  1 35  1  0  0  0
  1 36  1  0  0  0
  2  3  1  0  0  0
  2 33  1  0  0  0
  2 13  1  0  0  0
  3  4  2  0  0  0
  3  9  1  0  0  0
  4  5  1  0  0  0
  4 37  1  0  0  0
  5  6  2  0  0  0
  5 38  1  0  0  0
  6  7  1  0  0  0
  6 39  1  0  0  0
  7  8  1  0  0  0
  7  9  2  0  0  0
  8 40  1  0  0  0
  9 10  1  0  0  0
 10 11  2  0  0  0
 10 12  1  0  0  0
 12 13  1  0  0  0
 12 29  2  0  0  0
 13 14  1  0  0  0
 13 41  1  0  0  0
 14 15  1  0  0  0
 14 32  1  0  0  0
 14 42  1  0  0  0
 15 16  1  0  0  0
 15 28  1  0  0  0
 15 43  1  0  0  0
 16 17  1  0  0  0
 16 20  1  0  0  0
 16 44  1  0  0  0
 17 18  1  0  0  0
 17 19  1  0  0  0
 17 57  1  0  0  0
 18 45  1  0  0  0
 18 46  1  0  0  0
 18 47  1  0  0  0
 19 48  1  0  0  0
 19 49  1  0  0  0
 19 50  1  0  0  0
 20 21  1  0  0  0
 20 22  2  0  0  0
 22 23  1  0  0  0
 22 26  1  0  0  0
 23 24  1  0  0  0
 23 25  2  0  0  0
 24 51  1  0  0  0
 24 52  1  0  0  0
 26 27  2  0  0  0
 26 28  1  0  0  0
 28 29  1  0  0  0
 28 31  1  0  0  0
 29 30  1  0  0  0
 30 53  1  0  0  0
 31 54  1  0  0  0
 32 55  1  0  0  0
 33 56  1  0  0  0
M  CHG  2  17   1  21  -1
M  END
> <s_m_entry_id>
1785

> <s_m_entry_name>
Compounds-withfrags-for-validation-docking.1911

> <s_m_Source_Path>
/home/rodolpho/data/melina/maestro/glide-dock_XP_5RGK_M-PRO_VALIDATION

> <s_m_Source_File>
glide-dock_XP_5RGK_M-PRO_VALIDATION_pv.maegz

> <i_m_Source_File_Index>
1785

> <CID>
Oxitetracyclin

> <Potency>
15.15

> <pIC50>
4.81959

> <Source>
https://doi.org/10.1101/2020.03.23.004580

> <smiles>
C(C1(C2=C(C(=C(C(O[H])=C2C(O[H])=C2C1(C(C1(C(N(C([H])([H])[H])C([H])([H])[H])([H])C(=O)C(=C(N([H])[H])O[H])C(=O)C1(C2=O)O[H])[H])(O[H])[H])[H])[H])[H])[H])O[H])([H])([H])[H]

> <Outcome>
Inactive

> <StandardizerResult>
Clear Stereo (ID: ClearStereo)
Wedge Clean (ID: WedgeClean)
Mesomerize (ID: Mesomerize)
Tautomerize (ID: Tautomerize)
Aromatize (ID: Aromatize)
Add Explicit Hydrogens (ID: AddExplicitH)
Neutralize (ID: Neutralize)
Clean 2D (ID: Clean2D)

> <chiral flag>
0

> <version>
0

> <i_lp_mmshare_version>
41011

> <i_f3d_flags>
0

> <s_epik_input>
W09IXWMxW2NIXVtjSF1bY0hdYyhbQ0BdMihbQ0gzXSlbT0hdKWMxQyg9TylDKD1DM1tPSF0pW0NAQEhdMltDQEhdKFtPSF0pW0NAQEhdKFtDQEBdMzRbT0hdKVtDQEBIXShOKFtDSDNdKVtDSDNdKUMoPU8pW0NASF0oQzQ9TylDKD1PKVtOSDJd

> <s_epik_cmdline>
J2VwaWtfcHl0aG9uJywgJy1waHQnLCAnMC41JywgJy1waCcsICc3LjQnLCAnLXRuJywgJzgnLCAnLW1hJywgJzIwMCcsICctaW1hZScsICc8aW5maWxlLm1hZT4nLCAnLW9tYWUnLCAnPG91dGZpbGUubWFlPic=

> <r_epik_Ionization_Penalty>
0.6144

> <r_epik_Ionization_Penalty_Charging>
0.5087

> <r_epik_Ionization_Penalty_Neutral>
0.1057

> <r_epik_State_Penalty>
0.5157

> <r_epik_Charging_Adjusted_Penalty>
1.02439

> <i_epik_Tot_Q>
0

> <i_epik_Tot_abs_Q>
2

> <s_lp_Force_Field>
OPLS3

> <r_lp_Energy>
49.6318

> <b_lp_Chiralities_Consistent>
1

> <s_lp_Variant>
ligprep_COVID_compounds-withfrags-smallmolecules-forvalidation.maegz:6-36

> <i_glide_original_lignum>
88

> <s_i_glide_gridfile>
glide-grid_5RGK_M-PRO_COVID

> <i_i_glide_lignum>
88

> <r_i_docking_score>
-4.06395901849885

> <r_i_glide_ligand_efficiency>
-0.123150273287844

> <r_i_glide_ligand_efficiency_sa>
-0.395008728858744

> <r_i_glide_ligand_efficiency_ln>
-0.903803443660494

> <r_glide_XP_GScore>
-4.57966601849885

> <r_i_glide_gscore>
-4.57966601849885

> <r_i_glide_evdw>
-18.0409603118896

> <r_i_glide_ecoul>
-12.1999053955078

> <r_i_glide_energy>
-30.2408657073975

> <r_i_glide_einternal>
2.20778226852417

> <r_i_glide_emodel>
-36.0997435932186

> <r_glide_XP_HBond>
-1.11902152227287

> <i_i_glide_confnum>
1

> <i_i_glide_posenum>
6

> <r_i_glide_eff_state_penalty>
0.515707

> <i_glide_XP_PoseRank>
1

> <r_lp_tautomer_probability>


> <s_epik_Chemistry_Notes>


> <MW>


> <cLogP>


> <TPSA>


> <Rotatable Bonds>


> <Fraction sp3>


> <HBA>


> <HBD>


> <Structure ID>


> <Submission Fragments>


$$$$
ligprep_COVID_compounds-withfrags-smallmolecules-forvalidation.maegz:84
                    3D
 Structure written by MMmdl.
 47 49  0  0  1  0            999 V2000
    9.5722   -6.3962   25.6986 C   0  0  0  0  0  0
   10.0963   -5.0049   26.0470 C   0  0  0  0  0  0
    9.5038   -4.1422   25.1019 O   0  0  0  0  0  0
    8.5827   -3.2301   25.4384 C   0  0  0  0  0  0
    8.3714   -2.7977   26.5708 O   0  0  0  0  0  0
    7.8733   -2.7861   24.2499 C   0  0  0  0  0  0
    7.1644   -1.6348   24.0666 C   0  0  0  0  0  0
    6.7750   -1.7166   22.6906 C   0  0  0  0  0  0
    6.0732   -0.7042   21.8847 C   0  0  0  0  0  0
    6.2994   -0.6090   20.4930 C   0  0  0  0  0  0
    5.6727    0.3965   19.7342 C   0  0  0  0  0  0
    5.9748    0.5155   18.0399 Cl  0  0  0  0  0  0
    4.8095    1.3146   20.3593 C   0  0  0  0  0  0
    4.5657    1.2375   21.7465 C   0  0  0  0  0  0
    3.6119    2.2460   22.3867 C   0  0  0  0  0  0
    4.0857    2.7273   23.7621 C   0  0  0  0  0  0
    3.5749    2.2481   24.7740 O   0  0  0  0  0  0
    5.0673    3.6448   23.7707 N   0  0  0  0  0  0
    5.8032    4.1382   24.8813 C   0  0  0  0  0  0
    5.2146    4.3482   26.1505 C   0  0  0  0  0  0
    5.8941    4.8103   27.2205 N   0  0  0  0  0  0
    7.2026    5.0939   27.0614 C   0  0  0  0  0  0
    7.8817    4.9481   25.8369 C   0  0  0  0  0  0
    7.1710    4.4651   24.7193 C   0  0  0  0  0  0
    7.8809    4.2983   23.3854 C   0  0  0  0  0  0
    5.1981    0.2185   22.5001 C   0  0  0  0  0  0
    7.1645   -2.8658   22.1287 N   0  0  0  0  0  0
    7.8400   -3.5101   23.0880 N   0  0  0  0  0  0
   10.1558   -7.1794   26.1707 H   0  0  0  0  0  0
    9.6300   -6.5638   24.6232 H   0  0  0  0  0  0
    8.5325   -6.5180   26.0035 H   0  0  0  0  0  0
    9.8764   -4.7392   27.0822 H   0  0  0  0  0  0
   11.1750   -4.9637   25.9107 H   0  0  0  0  0  0
    6.9965   -0.8382   24.7773 H   0  0  0  0  0  0
    6.9721   -1.3001   20.0054 H   0  0  0  0  0  0
    4.3452    2.0919   19.7682 H   0  0  0  0  0  0
    3.4934    3.1123   21.7331 H   0  0  0  0  0  0
    2.6280    1.7866   22.4821 H   0  0  0  0  0  0
    5.4039    3.9331   22.8416 H   0  0  0  0  0  0
    4.1678    4.1498   26.3246 H   0  0  0  0  0  0
    7.7242    5.4575   27.9348 H   0  0  0  0  0  0
    8.9287    5.2009   25.7670 H   0  0  0  0  0  0
    8.9633    4.3537   23.5011 H   0  0  0  0  0  0
    7.5753    5.0857   22.6965 H   0  0  0  0  0  0
    7.6438    3.3352   22.9325 H   0  0  0  0  0  0
    5.0176    0.1358   23.5616 H   0  0  0  0  0  0
    8.2754   -4.4103   22.9440 H   0  0  0  0  0  0
  1  2  1  0  0  0
  1 29  1  0  0  0
  1 30  1  0  0  0
  1 31  1  0  0  0
  2  3  1  0  0  0
  2 32  1  0  0  0
  2 33  1  0  0  0
  3  4  1  0  0  0
  4  5  2  0  0  0
  4  6  1  0  0  0
  6  7  2  0  0  0
  6 28  1  0  0  0
  7  8  1  0  0  0
  7 34  1  0  0  0
  8  9  1  0  0  0
  8 27  2  0  0  0
  9 10  2  0  0  0
  9 26  1  0  0  0
 10 11  1  0  0  0
 10 35  1  0  0  0
 11 12  1  0  0  0
 11 13  2  0  0  0
 13 14  1  0  0  0
 13 36  1  0  0  0
 14 15  1  0  0  0
 14 26  2  0  0  0
 15 16  1  0  0  0
 15 37  1  0  0  0
 15 38  1  0  0  0
 16 17  2  0  0  0
 16 18  1  0  0  0
 18 19  1  0  0  0
 18 39  1  0  0  0
 19 20  2  0  0  0
 19 24  1  0  0  0
 20 21  1  0  0  0
 20 40  1  0  0  0
 21 22  2  0  0  0
 22 23  1  0  0  0
 22 41  1  0  0  0
 23 24  2  0  0  0
 23 42  1  0  0  0
 24 25  1  0  0  0
 25 43  1  0  0  0
 25 44  1  0  0  0
 25 45  1  0  0  0
 26 46  1  0  0  0
 27 28  1  0  0  0
 28 47  1  0  0  0
M  END
> <s_m_entry_id>
1787

> <s_m_entry_name>
Compounds-withfrags-for-validation-docking.1833

> <s_m_Source_Path>
/home/rodolpho/data/melina/maestro/glide-dock_XP_5RGK_M-PRO_VALIDATION

> <s_m_Source_File>
glide-dock_XP_5RGK_M-PRO_VALIDATION_pv.maegz

> <i_m_Source_File_Index>
1787

> <CID>
MAT-POS-f42f3716-9

> <Potency>
99.5

> <pIC50>
4.00218

> <Source>
Postera

> <smiles>
CCOC(=O)c1cc(-c2cc(Cl)cc(CC(=O)Nc3cnccc3C)c2)n[nH]1

> <Outcome>
Inactive

> <StandardizerResult>
Clear Stereo (ID: ClearStereo)
Wedge Clean (ID: WedgeClean)
Mesomerize (ID: Mesomerize)
Tautomerize (ID: Tautomerize)
Aromatize (ID: Aromatize)
Add Explicit Hydrogens (ID: AddExplicitH)
Neutralize (ID: Neutralize)
Clean 2D (ID: Clean2D)

> <chiral flag>
0

> <version>
0

> <i_lp_mmshare_version>
41011

> <i_f3d_flags>
0

> <s_epik_input>
W0NIM11bQ0gyXU9DKD1PKWMxW2NIXWMobltuSF0xKS1jMltjSF1jKENsKVtjSF1jKFtjSF0yKVtDSDJdQyg9TylbTkhdYzNbY0hdbltjSF1bY0hdYzNbQ0gzXQ==

> <s_epik_cmdline>
J2VwaWtfcHl0aG9uJywgJy1waHQnLCAnMC41JywgJy1waCcsICc3LjQnLCAnLXRuJywgJzgnLCAnLW1hJywgJzIwMCcsICctaW1hZScsICc8aW5maWxlLm1hZT4nLCAnLW9tYWUnLCAnPG91dGZpbGUubWFlPic=

> <r_lp_tautomer_probability>
1.0

> <r_epik_Ionization_Penalty>
0.0034

> <r_epik_Ionization_Penalty_Charging>
0.0

> <r_epik_Ionization_Penalty_Neutral>
0.0034

> <r_epik_State_Penalty>
0.0

> <r_epik_Charging_Adjusted_Penalty>
0.0

> <i_epik_Tot_Q>
0

> <i_epik_Tot_abs_Q>
0

> <s_lp_Force_Field>
OPLS3

> <r_lp_Energy>
38.1817

> <b_lp_Chiralities_Consistent>
1

> <s_lp_Variant>
ligprep_COVID_compounds-withfrags-smallmolecules-forvalidation.maegz:84-1

> <i_glide_original_lignum>
265

> <s_i_glide_gridfile>
glide-grid_5RGK_M-PRO_COVID

> <i_i_glide_lignum>
265

> <r_i_docking_score>
-4.06365509474057

> <r_i_glide_ligand_efficiency>
-0.145130539097877

> <r_i_glide_ligand_efficiency_sa>
-0.440701794017481

> <r_i_glide_ligand_efficiency_ln>
-0.938010909964226

> <r_glide_XP_GScore>
-4.06365509474057

> <r_i_glide_gscore>
-4.06365509474057

> <r_i_glide_evdw>
-31.690034866333

> <r_i_glide_ecoul>
-13.21178150177

> <r_i_glide_energy>
-44.901816368103

> <r_i_glide_einternal>
5.64927196502686

> <r_i_glide_emodel>
-60.3030921348284

> <r_glide_XP_HBond>
-0.645889863556101

> <i_i_glide_confnum>
1

> <i_i_glide_posenum>
26

> <r_i_glide_eff_state_penalty>
0.0

> <i_glide_XP_PoseRank>
1

> <s_epik_Chemistry_Notes>
This compound has an ester and may undergo hydrolysis at high or low pH.

> <MW>
398.11

> <cLogP>
3.79

> <TPSA>
96.97

> <Rotatable Bonds>
6

> <Fraction sp3>
0.2

> <HBA>
5

> <HBD>
2

> <Structure ID>


> <Submission Fragments>


$$$$
ligprep_COVID_compounds-withfrags-smallmolecules-forvalidation.maegz:6
                    3D
 Structure written by MMmdl.
 56 59  0  0  1  0            999 V2000
    1.2843    1.6276   20.8169 C   0  0  0  0  0  0
    2.5942    2.4576   20.8656 C   0  0  2  0  0  0
    3.7605    1.5639   20.4044 C   0  0  0  0  0  0
    4.0474    1.4360   19.0350 C   0  0  0  0  0  0
    5.0899    0.6477   18.5736 C   0  0  0  0  0  0
    5.8764   -0.0400   19.4811 C   0  0  0  0  0  0
    5.6185    0.0493   20.8468 C   0  0  0  0  0  0
    6.4637   -0.6743   21.6534 O   0  0  0  0  0  0
    4.5502    0.8459   21.3423 C   0  0  0  0  0  0
    4.2499    0.9011   22.8328 C   0  0  0  0  0  0
    4.8611    0.1936   23.6371 O   0  0  0  0  0  0
    3.2085    1.8749   23.2615 C   0  0  0  0  0  0
    2.9214    3.0381   22.2854 C   0  0  2  0  0  0
    1.8562    4.0448   22.8474 C   0  0  1  0  0  0
    1.8662    4.1736   24.3946 C   0  0  2  0  0  0
    3.1412    4.9282   24.9383 C   0  0  1  0  0  0
    2.9486    6.3986   24.9247 N   0  0  0  0  0  0
    1.5901    6.8352   24.6019 C   0  0  0  0  0  0
    3.9281    7.1314   24.1254 C   0  0  0  0  0  0
    3.6449    4.3402   26.2883 C   0  0  0  0  0  0
    4.8534    4.7384   26.5140 O   0  5  0  0  0  0
    2.9695    3.4606   27.0922 C   0  0  0  0  0  0
    3.5170    2.9968   28.3749 C   0  0  0  0  0  0
    3.9733    3.9386   29.2113 N   0  0  0  0  0  0
    3.5600    1.8113   28.7022 O   0  0  0  0  0  0
    1.6697    2.9645   26.5905 C   0  0  0  0  0  0
    0.7473    2.6627   27.3551 O   0  0  0  0  0  0
    1.5759    2.7842   25.0421 C   0  0  2  0  0  0
    2.5780    1.7513   24.4663 C   0  0  0  0  0  0
    2.6987    0.6697   25.2977 O   0  0  0  0  0  0
    0.2578    2.3509   24.7196 O   0  0  0  0  0  0
    1.9407    5.3148   22.2244 O   0  0  0  0  0  0
    2.3745    3.5425   19.9746 O   0  0  0  0  0  0
    1.3059    0.7981   21.5246 H   0  0  0  0  0  0
    1.1251    1.1955   19.8276 H   0  0  0  0  0  0
    0.3975    2.2197   21.0416 H   0  0  0  0  0  0
    3.4481    1.9585   18.3039 H   0  0  0  0  0  0
    5.2873    0.5721   17.5145 H   0  0  0  0  0  0
    6.6900   -0.6504   19.1160 H   0  0  0  0  0  0
    7.3438   -0.7681   21.2827 H   0  0  0  0  0  0
    3.8606    3.5927   22.2105 H   0  0  0  0  0  0
    0.8621    3.6965   22.5741 H   0  0  0  0  0  0
    1.0000    4.7911   24.6462 H   0  0  0  0  0  0
    3.9316    4.7094   24.2175 H   0  0  0  0  0  0
    0.8792    6.4405   25.3288 H   0  0  0  0  0  0
    1.2854    6.4912   23.6124 H   0  0  0  0  0  0
    1.5063    7.9218   24.6211 H   0  0  0  0  0  0
    4.9316    6.9776   24.5241 H   0  0  0  0  0  0
    3.7290    8.2033   24.1530 H   0  0  0  0  0  0
    3.9334    6.8095   23.0839 H   0  0  0  0  0  0
    3.9659    4.9100   28.9392 H   0  0  0  0  0  0
    4.3493    3.6750   30.1099 H   0  0  0  0  0  0
    1.8611    0.5060   25.7363 H   0  0  0  0  0  0
    0.1751    2.3166   23.7638 H   0  0  0  0  0  0
    2.7978    5.3875   21.7979 H   0  0  0  0  0  0
    3.2246    3.9342   19.7600 H   0  0  0  0  0  0
  1  2  1  0  0  0
  1 34  1  0  0  0
  1 35  1  0  0  0
  1 36  1  0  0  0
  2  3  1  0  0  0
  2 33  1  0  0  0
  2 13  1  0  0  0
  3  4  2  0  0  0
  3  9  1  0  0  0
  4  5  1  0  0  0
  4 37  1  0  0  0
  5  6  2  0  0  0
  5 38  1  0  0  0
  6  7  1  0  0  0
  6 39  1  0  0  0
  7  8  1  0  0  0
  7  9  2  0  0  0
  8 40  1  0  0  0
  9 10  1  0  0  0
 10 11  2  0  0  0
 10 12  1  0  0  0
 12 13  1  0  0  0
 12 29  2  0  0  0
 13 14  1  0  0  0
 13 41  1  0  0  0
 14 15  1  0  0  0
 14 32  1  0  0  0
 14 42  1  0  0  0
 15 16  1  0  0  0
 15 28  1  0  0  0
 15 43  1  0  0  0
 16 17  1  0  0  0
 16 20  1  0  0  0
 16 44  1  0  0  0
 17 18  1  0  0  0
 17 19  1  0  0  0
 18 45  1  0  0  0
 18 46  1  0  0  0
 18 47  1  0  0  0
 19 48  1  0  0  0
 19 49  1  0  0  0
 19 50  1  0  0  0
 20 21  1  0  0  0
 20 22  2  0  0  0
 22 23  1  0  0  0
 22 26  1  0  0  0
 23 24  1  0  0  0
 23 25  2  0  0  0
 24 51  1  0  0  0
 24 52  1  0  0  0
 26 27  2  0  0  0
 26 28  1  0  0  0
 28 29  1  0  0  0
 28 31  1  0  0  0
 29 30  1  0  0  0
 30 53  1  0  0  0
 31 54  1  0  0  0
 32 55  1  0  0  0
 33 56  1  0  0  0
M  CHG  1  21  -1
M  END
> <s_m_entry_id>
1790

> <s_m_entry_name>
Compounds-withfrags-for-validation-docking.1911

> <s_m_Source_Path>
/home/rodolpho/data/melina/maestro/glide-dock_XP_5RGK_M-PRO_VALIDATION

> <s_m_Source_File>
glide-dock_XP_5RGK_M-PRO_VALIDATION_pv.maegz

> <i_m_Source_File_Index>
1790

> <CID>
Oxitetracyclin

> <Potency>
15.15

> <pIC50>
4.81959

> <Source>
https://doi.org/10.1101/2020.03.23.004580

> <smiles>
C(C1(C2=C(C(=C(C(O[H])=C2C(O[H])=C2C1(C(C1(C(N(C([H])([H])[H])C([H])([H])[H])([H])C(=O)C(=C(N([H])[H])O[H])C(=O)C1(C2=O)O[H])[H])(O[H])[H])[H])[H])[H])[H])O[H])([H])([H])[H]

> <Outcome>
Inactive

> <StandardizerResult>
Clear Stereo (ID: ClearStereo)
Wedge Clean (ID: WedgeClean)
Mesomerize (ID: Mesomerize)
Tautomerize (ID: Tautomerize)
Aromatize (ID: Aromatize)
Add Explicit Hydrogens (ID: AddExplicitH)
Neutralize (ID: Neutralize)
Clean 2D (ID: Clean2D)

> <chiral flag>
0

> <version>
0

> <i_lp_mmshare_version>
41011

> <i_f3d_flags>
0

> <s_epik_input>
W09IXWMxW2NIXVtjSF1bY0hdYyhbQ0BdMihbQ0gzXSlbT0hdKWMxQyg9TylDKD1DM1tPSF0pW0NAQEhdMltDQEhdKFtPSF0pW0NAQEhdKFtDQEBdMzRbT0hdKVtDQEBIXShOKFtDSDNdKVtDSDNdKUMoPU8pW0NASF0oQzQ9TylDKD1PKVtOSDJd

> <s_epik_cmdline>
J2VwaWtfcHl0aG9uJywgJy1waHQnLCAnMC41JywgJy1waCcsICc3LjQnLCAnLXRuJywgJzgnLCAnLW1hJywgJzIwMCcsICctaW1hZScsICc8aW5maWxlLm1hZT4nLCAnLW9tYWUnLCAnPG91dGZpbGUubWFlPic=

> <r_epik_Ionization_Penalty>
0.3646

> <r_epik_Ionization_Penalty_Charging>
0.0013

> <r_epik_Ionization_Penalty_Neutral>
0.3633

> <r_epik_State_Penalty>
0.3215

> <r_epik_Charging_Adjusted_Penalty>
0.322822

> <i_epik_Tot_Q>
-1

> <i_epik_Tot_abs_Q>
1

> <s_lp_Force_Field>
OPLS3

> <r_lp_Energy>
54.6797

> <b_lp_Chiralities_Consistent>
1

> <s_lp_Variant>
ligprep_COVID_compounds-withfrags-smallmolecules-forvalidation.maegz:6-13

> <i_glide_original_lignum>
65

> <s_i_glide_gridfile>
glide-grid_5RGK_M-PRO_COVID

> <i_i_glide_lignum>
65

> <r_i_docking_score>
-4.06118335249361

> <r_i_glide_ligand_efficiency>
-0.123066162196776

> <r_i_glide_ligand_efficiency_sa>
-0.394738939646924

> <r_i_glide_ligand_efficiency_ln>
-0.903186149912557

> <r_glide_XP_GScore>
-4.38268035249361

> <r_i_glide_gscore>
-4.38268035249361

> <r_i_glide_evdw>
-17.8420143127441

> <r_i_glide_ecoul>
-9.91254711151123

> <r_i_glide_energy>
-27.7545614242554

> <r_i_glide_einternal>
0.0

> <r_i_glide_emodel>
-34.9425171684335

> <r_glide_XP_HBond>
-1.93659590970774

> <i_i_glide_confnum>
1

> <i_i_glide_posenum>
49

> <r_i_glide_eff_state_penalty>
0.321497

> <i_glide_XP_PoseRank>
1

> <r_lp_tautomer_probability>


> <s_epik_Chemistry_Notes>


> <MW>


> <cLogP>


> <TPSA>


> <Rotatable Bonds>


> <Fraction sp3>


> <HBA>


> <HBD>


> <Structure ID>


> <Submission Fragments>


$$$$
ligprep_COVID_compounds-withfrags-smallmolecules-forvalidation.maegz:55
                    3D
 Structure written by MMmdl.
 42 45  0  0  1  0            999 V2000
    3.7381   -7.3581   27.8111 C   0  0  0  0  0  0
    3.6426   -7.1470   29.3070 C   0  0  0  0  0  0
    2.4181   -7.3287   29.9825 C   0  0  0  0  0  0
    2.3510   -7.1149   31.3812 C   0  0  0  0  0  0
    1.0449   -7.3200   32.1446 C   0  0  0  0  0  0
    0.0552   -7.7028   31.3360 F   0  0  0  0  0  0
    1.2093   -8.2626   33.0756 F   0  0  0  0  0  0
    0.6816   -6.1842   32.7439 F   0  0  0  0  0  0
    3.4106   -6.7310   32.1347 N   0  0  0  0  0  0
    4.5710   -6.5636   31.4427 C   0  0  0  0  0  0
    5.8102   -6.1837   31.9272 N   0  0  0  0  0  0
    6.7749   -6.1607   30.9766 N   0  0  0  0  0  0
    6.1708   -6.4820   29.8592 C   0  0  0  0  0  0
    6.8386   -6.5638   28.6210 N   0  0  0  0  0  0
    7.1610   -5.5000   27.8773 C   0  0  0  0  0  0
    6.6165   -4.4083   28.0147 O   0  0  0  0  0  0
    8.1609   -5.7115   26.7368 C   0  0  2  0  0  0
    9.4627   -4.9314   26.9663 C   0  0  0  0  0  0
   10.2600   -4.9497   25.6641 C   0  0  0  0  0  0
    9.5754   -4.1654   24.7012 O   0  0  0  0  0  0
    8.2723   -4.5422   24.4787 C   0  0  0  0  0  0
    7.6657   -4.1312   23.2832 C   0  0  0  0  0  0
    6.3750   -4.5809   22.9705 C   0  0  0  0  0  0
    5.6765   -5.4439   23.8337 C   0  0  0  0  0  0
    4.1788   -6.1638   23.3631 Cl  0  0  0  0  0  0
    6.2302   -5.7630   25.0794 C   0  0  0  0  0  0
    7.5319   -5.3222   25.4066 C   0  0  0  0  0  0
    4.7787   -6.7608   30.0520 C   0  0  0  0  0  0
    4.5864   -8.0000   27.5725 H   0  0  0  0  0  0
    3.8795   -6.3998   27.3114 H   0  0  0  0  0  0
    2.8344   -7.8201   27.4137 H   0  0  0  0  0  0
    1.5398   -7.6314   29.4310 H   0  0  0  0  0  0
    6.0306   -5.9187   32.8788 H   0  0  0  0  0  0
    7.1830   -7.4742   28.3209 H   0  0  0  0  0  0
    8.4234   -6.7626   26.6584 H   0  0  0  0  0  0
    9.2589   -3.8984   27.2496 H   0  0  0  0  0  0
   10.0463   -5.3635   27.7716 H   0  0  0  0  0  0
   11.2596   -4.5637   25.8075 H   0  0  0  0  0  0
   10.3750   -5.9700   25.2972 H   0  0  0  0  0  0
    8.2000   -3.4962   22.5915 H   0  0  0  0  0  0
    5.9160   -4.2445   22.0625 H   0  0  0  0  0  0
    5.6851   -6.4103   25.7498 H   0  0  0  0  0  0
  1 29  1  0  0  0
  1 30  1  0  0  0
  1 31  1  0  0  0
  1  2  1  0  0  0
  2  3  2  0  0  0
  2 28  1  0  0  0
  3  4  1  0  0  0
  3 32  1  0  0  0
  4  9  2  0  0  0
  4  5  1  0  0  0
  5  6  1  0  0  0
  5  7  1  0  0  0
  5  8  1  0  0  0
  9 10  1  0  0  0
 10 11  1  0  0  0
 10 28  2  0  0  0
 11 12  1  0  0  0
 11 33  1  0  0  0
 12 13  2  0  0  0
 13 28  1  0  0  0
 13 14  1  0  0  0
 14 15  1  0  0  0
 14 34  1  0  0  0
 15 16  2  0  0  0
 15 17  1  0  0  0
 17 18  1  0  0  0
 17 27  1  0  0  0
 17 35  1  0  0  0
 18 19  1  0  0  0
 18 36  1  0  0  0
 18 37  1  0  0  0
 19 20  1  0  0  0
 19 38  1  0  0  0
 19 39  1  0  0  0
 20 21  1  0  0  0
 21 22  2  0  0  0
 21 27  1  0  0  0
 22 23  1  0  0  0
 22 40  1  0  0  0
 23 24  2  0  0  0
 23 41  1  0  0  0
 24 25  1  0  0  0
 24 26  1  0  0  0
 26 27  2  0  0  0
 26 42  1  0  0  0
M  END
> <s_m_entry_id>
1795

> <s_m_entry_name>
Compounds-withfrags-for-validation-docking.1862

> <s_m_Source_Path>
/home/rodolpho/data/melina/maestro/glide-dock_XP_5RGK_M-PRO_VALIDATION

> <s_m_Source_File>
glide-dock_XP_5RGK_M-PRO_VALIDATION_pv.maegz

> <i_m_Source_File_Index>
1795

> <CID>
JAG-UCB-52b62a6f-19

> <Potency>
25.9776

> <pIC50>
4.5854

> <Source>
Postera

> <smiles>
Cc1cc(C(F)(F)F)nc2n[nH]c(NC(=O)C3CCOc4ccc(Cl)cc43)c12

> <Outcome>
Inactive

> <StandardizerResult>
Clear Stereo (ID: ClearStereo)
Wedge Clean (ID: WedgeClean)
Mesomerize (ID: Mesomerize)
Tautomerize (ID: Tautomerize)
Aromatize (ID: Aromatize)
Add Explicit Hydrogens (ID: AddExplicitH)
Neutralize (ID: Neutralize)
Clean 2D (ID: Clean2D)

> <chiral flag>
0

> <version>
0

> <i_lp_mmshare_version>
41011

> <i_f3d_flags>
0

> <s_epik_input>
RkMoRikoRiljKG4xKVtjSF1jKFtDSDNdKWMoYzEyKWMoW25IXW4yKVtOSF1DKD1PKVtDQEhdKFtDSDJdW0NIMl1PMyljKGMzNClbY0hdYyhDbClbY0hdW2NIXTQ=

> <s_epik_cmdline>
J2VwaWtfcHl0aG9uJywgJy1waHQnLCAnMC41JywgJy1waCcsICc3LjQnLCAnLXRuJywgJzgnLCAnLW1hJywgJzIwMCcsICctaW1hZScsICc8aW5maWxlLm1hZT4nLCAnLW9tYWUnLCAnPG91dGZpbGUubWFlPic=

> <r_lp_tautomer_probability>
1.0

> <r_epik_Ionization_Penalty>
0.0

> <r_epik_Ionization_Penalty_Charging>
0.0

> <r_epik_Ionization_Penalty_Neutral>
0.0

> <r_epik_State_Penalty>
0.0

> <r_epik_Charging_Adjusted_Penalty>
0.0

> <i_epik_Tot_Q>
0

> <i_epik_Tot_abs_Q>
0

> <s_lp_Force_Field>
OPLS3

> <r_lp_Energy>
35.9169

> <b_lp_Chiralities_Consistent>
1

> <s_lp_Variant>
ligprep_COVID_compounds-withfrags-smallmolecules-forvalidation.maegz:55-1

> <i_glide_original_lignum>
221

> <s_i_glide_gridfile>
glide-grid_5RGK_M-PRO_COVID

> <i_i_glide_lignum>
221

> <r_i_docking_score>
-4.05904504231795

> <r_i_glide_ligand_efficiency>
-0.144965894368498

> <r_i_glide_ligand_efficiency_sa>
-0.440201835648527

> <r_i_glide_ligand_efficiency_ln>
-0.936946774508066

> <r_glide_XP_GScore>
-4.05904504231795

> <r_i_glide_gscore>
-4.05904504231795

> <r_i_glide_evdw>
-22.3639068603516

> <r_i_glide_ecoul>
-15.8267850875854

> <r_i_glide_energy>
-38.190691947937

> <r_i_glide_einternal>
3.16432189941406

> <r_i_glide_emodel>
-44.002484912897

> <r_glide_XP_HBond>
-0.709281900952658

> <i_i_glide_confnum>
1

> <i_i_glide_posenum>
1

> <r_i_glide_eff_state_penalty>
0.0

> <i_glide_XP_PoseRank>
1

> <MW>
410.08

> <cLogP>
4.44

> <TPSA>
79.9

> <Rotatable Bonds>
2

> <Fraction sp3>
0.28

> <HBA>
4

> <HBD>
2

> <s_epik_Chemistry_Notes>


> <Structure ID>


> <Submission Fragments>


$$$$
ligprep_COVID_compounds-withfrags-smallmolecules-forvalidation.maegz:47
                    3D
 Structure written by MMmdl.
 76 79  0  0  1  0            999 V2000
   10.3020   -5.3632   25.5519 C   0  0  0  0  0  0
    9.0109   -4.5608   25.7316 C   0  0  1  0  0  0
    8.8356   -3.5582   24.5832 C   0  0  0  0  0  0
    7.5426   -2.7374   24.7240 C   0  0  1  0  0  0
    7.4135   -1.7495   23.5506 C   0  0  0  0  0  0
    6.3817   -0.6198   23.7778 C   0  0  0  0  0  0
    6.8123    0.7533   23.3917 N   0  0  0  0  0  0
    7.8993    1.2993   24.0255 C   0  0  0  0  0  0
    8.6767    0.6370   24.7165 O   0  0  0  0  0  0
    8.1753    2.7545   23.9604 C   0  0  0  0  0  0
    7.3838    3.8531   24.1700 C   0  0  0  0  0  0
    8.2141    4.9963   24.0147 C   0  0  0  0  0  0
    9.4686    4.5174   23.7717 C   0  0  0  0  0  0
    9.4668    3.1567   23.7661 O   0  0  0  0  0  0
    5.9237    1.5267   22.4634 C   0  0  2  0  0  0
    4.5282    1.7907   23.0900 C   0  0  0  0  0  0
    3.9335    0.9348   23.7417 O   0  0  0  0  0  0
    4.0493    3.0365   22.9781 N   0  0  0  0  0  0
    3.0203    3.5978   23.8526 C   0  0  0  0  0  0
    1.5822    3.2130   23.4618 C   0  0  0  0  0  0
    1.1713    3.8202   22.1384 C   0  0  0  0  0  0
    0.4707    5.0461   22.0999 C   0  0  0  0  0  0
    0.1352    5.6301   20.8614 C   0  0  0  0  0  0
    0.5119    4.9962   19.6626 C   0  0  0  0  0  0
    1.2087    3.7731   19.7081 C   0  0  0  0  0  0
    1.5855    3.1596   18.5708 F   0  0  0  0  0  0
    1.5208    3.1771   20.9391 C   0  0  0  0  0  0
    5.7413    0.9076   21.0896 C   0  0  0  0  0  0
    6.5620   -0.1272   20.5897 C   0  0  0  0  0  0
    6.4593   -0.5722   19.2610 C   0  0  0  0  0  0
    5.5196    0.0447   18.4270 C   0  0  0  0  0  0
    4.7206    1.0363   18.8560 N   0  0  0  0  0  0
    4.8321    1.4361   20.1385 C   0  0  0  0  0  0
    6.3186   -3.6733   24.8319 C   0  0  0  0  0  0
    6.4398   -4.7293   25.9590 C   0  0  0  0  0  0
    6.3245   -4.0705   27.3509 C   0  0  0  0  0  0
    5.2877   -5.7422   25.8226 C   0  0  0  0  0  0
    7.7838   -5.4868   25.8180 C   0  0  0  0  0  0
   10.3473   -5.8263   24.5692 H   0  0  0  0  0  0
   10.3750   -6.1628   26.2864 H   0  0  0  0  0  0
   11.1757   -4.7236   25.6505 H   0  0  0  0  0  0
    9.1023   -4.0100   26.6679 H   0  0  0  0  0  0
    9.6965   -2.8884   24.5563 H   0  0  0  0  0  0
    8.8279   -4.0888   23.6294 H   0  0  0  0  0  0
    7.6305   -2.1488   25.6384 H   0  0  0  0  0  0
    8.3922   -1.3246   23.3707 H   0  0  0  0  0  0
    7.1700   -2.2966   22.6396 H   0  0  0  0  0  0
    5.4796   -0.9143   23.2439 H   0  0  0  0  0  0
    6.0992   -0.5773   24.8289 H   0  0  0  0  0  0
    6.3265    3.8407   24.3893 H   0  0  0  0  0  0
    7.9311    6.0377   24.0781 H   0  0  0  0  0  0
   10.4263    4.9814   23.5843 H   0  0  0  0  0  0
    6.3666    2.4955   22.2492 H   0  0  0  0  0  0
    4.5724    3.6874   22.3821 H   0  0  0  0  0  0
    3.2145    3.2782   24.8786 H   0  0  0  0  0  0
    3.1290    4.6837   23.8528 H   0  0  0  0  0  0
    1.4725    2.1291   23.4130 H   0  0  0  0  0  0
    0.8908    3.5512   24.2354 H   0  0  0  0  0  0
    0.2026    5.5470   23.0177 H   0  0  0  0  0  0
   -0.3950    6.5713   20.8342 H   0  0  0  0  0  0
    0.2772    5.4461   18.7098 H   0  0  0  0  0  0
    2.0554    2.2385   20.9576 H   0  0  0  0  0  0
    7.3164   -0.5638   21.2127 H   0  0  0  0  0  0
    7.0937   -1.3616   18.8896 H   0  0  0  0  0  0
    5.4068   -0.2612   17.3979 H   0  0  0  0  0  0
    4.1962    2.2659   20.3945 H   0  0  0  0  0  0
    5.4131   -3.0822   24.9701 H   0  0  0  0  0  0
    6.1895   -4.1856   23.8773 H   0  0  0  0  0  0
    6.3964   -4.8153   28.1442 H   0  0  0  0  0  0
    5.3672   -3.5605   27.4685 H   0  0  0  0  0  0
    7.1055   -3.3335   27.5289 H   0  0  0  0  0  0
    5.3594   -6.5272   26.5774 H   0  0  0  0  0  0
    5.2940   -6.2276   24.8473 H   0  0  0  0  0  0
    4.3188   -5.2582   25.9398 H   0  0  0  0  0  0
    7.7604   -6.1053   24.9205 H   0  0  0  0  0  0
    7.9083   -6.1812   26.6505 H   0  0  0  0  0  0
  1  2  1  0  0  0
  1 39  1  0  0  0
  1 40  1  0  0  0
  1 41  1  0  0  0
  2  3  1  0  0  0
  2 38  1  0  0  0
  2 42  1  0  0  0
  3  4  1  0  0  0
  3 43  1  0  0  0
  3 44  1  0  0  0
  4  5  1  0  0  0
  4 34  1  0  0  0
  4 45  1  0  0  0
  5  6  1  0  0  0
  5 46  1  0  0  0
  5 47  1  0  0  0
  6  7  1  0  0  0
  6 48  1  0  0  0
  6 49  1  0  0  0
  7  8  1  0  0  0
  7 15  1  0  0  0
  8  9  2  0  0  0
  8 10  1  0  0  0
 10 11  2  0  0  0
 10 14  1  0  0  0
 11 12  1  0  0  0
 11 50  1  0  0  0
 12 13  2  0  0  0
 12 51  1  0  0  0
 13 14  1  0  0  0
 13 52  1  0  0  0
 15 16  1  0  0  0
 15 28  1  0  0  0
 15 53  1  0  0  0
 16 17  2  0  0  0
 16 18  1  0  0  0
 18 19  1  0  0  0
 18 54  1  0  0  0
 19 20  1  0  0  0
 19 55  1  0  0  0
 19 56  1  0  0  0
 20 21  1  0  0  0
 20 57  1  0  0  0
 20 58  1  0  0  0
 21 22  2  0  0  0
 21 27  1  0  0  0
 22 23  1  0  0  0
 22 59  1  0  0  0
 23 24  2  0  0  0
 23 60  1  0  0  0
 24 25  1  0  0  0
 24 61  1  0  0  0
 25 26  1  0  0  0
 25 27  2  0  0  0
 27 62  1  0  0  0
 28 29  2  0  0  0
 28 33  1  0  0  0
 29 30  1  0  0  0
 29 63  1  0  0  0
 30 31  2  0  0  0
 30 64  1  0  0  0
 31 32  1  0  0  0
 31 65  1  0  0  0
 32 33  2  0  0  0
 33 66  1  0  0  0
 34 35  1  0  0  0
 34 67  1  0  0  0
 34 68  1  0  0  0
 35 36  1  0  0  0
 35 37  1  0  0  0
 35 38  1  0  0  0
 36 69  1  0  0  0
 36 70  1  0  0  0
 36 71  1  0  0  0
 37 72  1  0  0  0
 37 73  1  0  0  0
 37 74  1  0  0  0
 38 75  1  0  0  0
 38 76  1  0  0  0
M  END
> <s_m_entry_id>
1826

> <s_m_entry_name>
Compounds-withfrags-for-validation-docking.1870

> <s_m_Source_Path>
/home/rodolpho/data/melina/maestro/glide-dock_XP_5RGK_M-PRO_VALIDATION

> <s_m_Source_File>
glide-dock_XP_5RGK_M-PRO_VALIDATION_pv.maegz

> <i_m_Source_File_Index>
1826

> <CID>
ALP-POS-b0bc6a46-1

> <Potency>
99.5

> <pIC50>
4.00218

> <Source>
Postera

> <smiles>
CC1CC(CCN(C(=O)c2ccco2)C(C(=O)NCCc2cccc(F)c2)c2cccnc2)CC(C)(C)C1

> <Outcome>
Inactive

> <StandardizerResult>
Clear Stereo (ID: ClearStereo)
Wedge Clean (ID: WedgeClean)
Mesomerize (ID: Mesomerize)
Tautomerize (ID: Tautomerize)
Aromatize (ID: Aromatize)
Add Explicit Hydrogens (ID: AddExplicitH)
Neutralize (ID: Neutralize)
Clean 2D (ID: Clean2D)

> <chiral flag>
0

> <version>
0

> <i_lp_mmshare_version>
41011

> <i_f3d_flags>
0

> <s_epik_input>
W0NIM11bQ0BIXShbQ0gyXTEpW0NIMl1bQ0BIXShbQ0gyXUMxKFtDSDNdKVtDSDNdKVtDSDJdW0NIMl1OKEMoPU8pYzJbY0hdW2NIXVtjSF1vMilbQ0BASF0oYzNbY0hdW2NIXVtjSF1uW2NIXTMpQyg9TylbTkhdW0NIMl1bQ0gyXWM0W2NIXVtjSF1bY0hdYyhGKVtjSF00

> <s_epik_cmdline>
J2VwaWtfcHl0aG9uJywgJy1waHQnLCAnMC41JywgJy1waCcsICc3LjQnLCAnLXRuJywgJzgnLCAnLW1hJywgJzIwMCcsICctaW1hZScsICc8aW5maWxlLm1hZT4nLCAnLW9tYWUnLCAnPG91dGZpbGUubWFlPic=

> <r_lp_tautomer_probability>
1.0

> <r_epik_Ionization_Penalty>
8.0E-4

> <r_epik_Ionization_Penalty_Charging>
0.0

> <r_epik_Ionization_Penalty_Neutral>
8.0E-4

> <r_epik_State_Penalty>
0.0

> <r_epik_Charging_Adjusted_Penalty>
0.0

> <i_epik_Tot_Q>
0

> <i_epik_Tot_abs_Q>
0

> <s_lp_Force_Field>
OPLS3

> <r_lp_Energy>
56.6046

> <b_lp_Chiralities_Consistent>
1

> <s_lp_Variant>
ligprep_COVID_compounds-withfrags-smallmolecules-forvalidation.maegz:47-6

> <i_glide_original_lignum>
210

> <s_i_glide_gridfile>
glide-grid_5RGK_M-PRO_COVID

> <i_i_glide_lignum>
210

> <r_i_docking_score>
-4.0403816737248

> <r_i_glide_ligand_efficiency>
-0.106325833519074

> <r_i_glide_ligand_efficiency_sa>
-0.35746483696509

> <r_i_glide_ligand_efficiency_ln>
-0.871225144841984

> <r_glide_XP_GScore>
-4.0403816737248

> <r_i_glide_gscore>
-4.0403816737248

> <r_i_glide_evdw>
-38.8165283203125

> <r_i_glide_ecoul>
-8.17139625549316

> <r_i_glide_energy>
-46.9879245758057

> <r_i_glide_einternal>
2.27109932899475

> <r_i_glide_emodel>
-64.7272091744698

> <r_glide_XP_HBond>
-1.18444695446058

> <i_i_glide_confnum>
4

> <i_i_glide_posenum>
25

> <r_i_glide_eff_state_penalty>
0.0

> <i_glide_XP_PoseRank>
1

> <MW>
519.29

> <cLogP>
6.21

> <TPSA>
75.44

> <Rotatable Bonds>
10

> <Fraction sp3>
0.45

> <HBA>
4

> <HBD>
1

> <s_epik_Chemistry_Notes>


> <Structure ID>


> <Submission Fragments>


$$$$
ligprep_COVID_compounds-withfrags-smallmolecules-forvalidation.maegz:6
                    3D
 Structure written by MMmdl.
 57 60  0  0  1  0            999 V2000
    7.4727    2.6121   23.7072 C   0  0  0  0  0  0
    8.5257    2.8376   24.8118 C   0  0  1  0  0  0
    9.9174    2.8122   24.1725 C   0  0  0  0  0  0
   10.6573    1.6045   24.1324 C   0  0  0  0  0  0
   11.9271    1.5573   23.5329 C   0  0  0  0  0  0
   12.4732    2.7203   22.9704 C   0  0  0  0  0  0
   11.7633    3.9345   23.0173 C   0  0  0  0  0  0
   12.3750    5.0337   22.4845 O   0  0  0  0  0  0
   10.4705    3.9974   23.6178 C   0  0  0  0  0  0
    9.7196    5.2956   23.7248 C   0  0  0  0  0  0
    9.9747    6.2366   22.9713 O   0  0  0  0  0  0
    8.7040    5.4378   24.8099 C   0  0  0  0  0  0
    8.3546    4.1769   25.5981 C   0  0  1  0  0  0
    7.1230    4.3540   26.5302 C   0  0  1  0  0  0
    7.2264    5.7001   27.3121 C   0  0  2  0  0  0
    6.2421    5.9634   28.5005 C   0  0  2  0  0  0
    5.9653    4.8088   29.4148 N   0  3  0  0  0  0
    5.0014    3.7821   28.9432 C   0  0  0  0  0  0
    7.1519    4.2462   30.1007 C   0  0  0  0  0  0
    4.9670    6.7939   28.1833 C   0  0  0  0  0  0
    4.2838    6.8198   29.2382 O   0  5  0  0  0  0
    4.7674    7.3519   26.9096 C   0  0  0  0  0  0
    3.4888    8.0632   26.6681 C   0  0  0  0  0  0
    3.3425    8.5707   25.4435 N   0  0  0  0  0  0
    2.5771    8.2310   27.4745 O   0  0  0  0  0  0
    5.8236    7.2077   25.8581 C   0  0  0  0  0  0
    5.6070    7.3189   24.6489 O   0  0  0  0  0  0
    7.2578    6.9117   26.3474 C   0  0  2  0  0  0
    8.2055    6.6523   25.1630 C   0  0  0  0  0  0
    8.5435    7.8128   24.5709 O   0  0  0  0  0  0
    7.7030    8.0463   27.0784 O   0  0  0  0  0  0
    5.8873    4.2346   25.8496 O   0  0  0  0  0  0
    8.3749    1.7773   25.7415 O   0  0  0  0  0  0
    7.4708    3.4227   22.9771 H   0  0  0  0  0  0
    6.4611    2.5236   24.0983 H   0  0  0  0  0  0
    7.6746    1.6912   23.1588 H   0  0  0  0  0  0
   10.2487    0.6945   24.5472 H   0  0  0  0  0  0
   12.4826    0.6318   23.5029 H   0  0  0  0  0  0
   13.4523    2.6839   22.5138 H   0  0  0  0  0  0
   11.7430    5.7310   22.3566 H   0  0  0  0  0  0
    9.1750    4.1532   26.3080 H   0  0  0  0  0  0
    7.1792    3.5343   27.2380 H   0  0  0  0  0  0
    8.2123    5.6613   27.7801 H   0  0  0  0  0  0
    6.8145    6.6350   29.1445 H   0  0  0  0  0  0
    5.4682    3.0081   28.3425 H   0  0  0  0  0  0
    4.1884    4.2161   28.3608 H   0  0  0  0  0  0
    4.5520    3.2869   29.8041 H   0  0  0  0  0  0
    7.7772    3.6717   29.4192 H   0  0  0  0  0  0
    6.8446    3.5825   30.9090 H   0  0  0  0  0  0
    7.7645    5.0351   30.5380 H   0  0  0  0  0  0
    4.0715    8.3935   24.7613 H   0  0  0  0  0  0
    2.5009    9.0700   25.2020 H   0  0  0  0  0  0
    9.1103    7.5963   23.8415 H   0  0  0  0  0  0
    6.9402    8.4597   27.4571 H   0  0  0  0  0  0
    5.8555    4.8520   25.1301 H   0  0  0  0  0  0
    7.4477    1.6659   25.9330 H   0  0  0  0  0  0
    5.4283    5.2978   30.1221 H   0  0  0  0  0  0
  1  2  1  0  0  0
  1 34  1  0  0  0
  1 35  1  0  0  0
  1 36  1  0  0  0
  2  3  1  0  0  0
  2 33  1  0  0  0
  2 13  1  0  0  0
  3  4  2  0  0  0
  3  9  1  0  0  0
  4  5  1  0  0  0
  4 37  1  0  0  0
  5  6  2  0  0  0
  5 38  1  0  0  0
  6  7  1  0  0  0
  6 39  1  0  0  0
  7  8  1  0  0  0
  7  9  2  0  0  0
  8 40  1  0  0  0
  9 10  1  0  0  0
 10 11  2  0  0  0
 10 12  1  0  0  0
 12 13  1  0  0  0
 12 29  2  0  0  0
 13 14  1  0  0  0
 13 41  1  0  0  0
 14 15  1  0  0  0
 14 32  1  0  0  0
 14 42  1  0  0  0
 15 16  1  0  0  0
 15 28  1  0  0  0
 15 43  1  0  0  0
 16 17  1  0  0  0
 16 20  1  0  0  0
 16 44  1  0  0  0
 17 18  1  0  0  0
 17 19  1  0  0  0
 17 57  1  0  0  0
 18 45  1  0  0  0
 18 46  1  0  0  0
 18 47  1  0  0  0
 19 48  1  0  0  0
 19 49  1  0  0  0
 19 50  1  0  0  0
 20 21  1  0  0  0
 20 22  2  0  0  0
 22 23  1  0  0  0
 22 26  1  0  0  0
 23 24  1  0  0  0
 23 25  2  0  0  0
 24 51  1  0  0  0
 24 52  1  0  0  0
 26 27  2  0  0  0
 26 28  1  0  0  0
 28 29  1  0  0  0
 28 31  1  0  0  0
 29 30  1  0  0  0
 30 53  1  0  0  0
 31 54  1  0  0  0
 32 55  1  0  0  0
 33 56  1  0  0  0
M  CHG  2  17   1  21  -1
M  END
> <s_m_entry_id>
1832

> <s_m_entry_name>
Compounds-withfrags-for-validation-docking.1911

> <s_m_Source_Path>
/home/rodolpho/data/melina/maestro/glide-dock_XP_5RGK_M-PRO_VALIDATION

> <s_m_Source_File>
glide-dock_XP_5RGK_M-PRO_VALIDATION_pv.maegz

> <i_m_Source_File_Index>
1832

> <CID>
Oxitetracyclin

> <Potency>
15.15

> <pIC50>
4.81959

> <Source>
https://doi.org/10.1101/2020.03.23.004580

> <smiles>
C(C1(C2=C(C(=C(C(O[H])=C2C(O[H])=C2C1(C(C1(C(N(C([H])([H])[H])C([H])([H])[H])([H])C(=O)C(=C(N([H])[H])O[H])C(=O)C1(C2=O)O[H])[H])(O[H])[H])[H])[H])[H])[H])O[H])([H])([H])[H]

> <Outcome>
Inactive

> <StandardizerResult>
Clear Stereo (ID: ClearStereo)
Wedge Clean (ID: WedgeClean)
Mesomerize (ID: Mesomerize)
Tautomerize (ID: Tautomerize)
Aromatize (ID: Aromatize)
Add Explicit Hydrogens (ID: AddExplicitH)
Neutralize (ID: Neutralize)
Clean 2D (ID: Clean2D)

> <chiral flag>
0

> <version>
0

> <i_lp_mmshare_version>
41011

> <i_f3d_flags>
0

> <s_epik_input>
W09IXWMxW2NIXVtjSF1bY0hdYyhbQ0BAXTIoW0NIM10pW09IXSljMUMoPU8pQyg9QzNbT0hdKVtDQEhdMltDQEhdKFtPSF0pW0NAQEhdKFtDQEBdMzRbT0hdKVtDQEhdKE4oW0NIM10pW0NIM10pQyg9TylbQ0BIXShDND1PKUMoPU8pW05IMl0=

> <s_epik_cmdline>
J2VwaWtfcHl0aG9uJywgJy1waHQnLCAnMC41JywgJy1waCcsICc3LjQnLCAnLXRuJywgJzgnLCAnLW1hJywgJzIwMCcsICctaW1hZScsICc8aW5maWxlLm1hZT4nLCAnLW9tYWUnLCAnPG91dGZpbGUubWFlPic=

> <r_epik_Ionization_Penalty>
0.6144

> <r_epik_Ionization_Penalty_Charging>
0.5087

> <r_epik_Ionization_Penalty_Neutral>
0.1057

> <r_epik_State_Penalty>
0.5157

> <r_epik_Charging_Adjusted_Penalty>
1.02439

> <i_epik_Tot_Q>
0

> <i_epik_Tot_abs_Q>
2

> <s_lp_Force_Field>
OPLS3

> <r_lp_Energy>
59.4354

> <b_lp_Chiralities_Consistent>
1

> <s_lp_Variant>
ligprep_COVID_compounds-withfrags-smallmolecules-forvalidation.maegz:6-48

> <i_glide_original_lignum>
100

> <s_i_glide_gridfile>
glide-grid_5RGK_M-PRO_COVID

> <i_i_glide_lignum>
100

> <r_i_docking_score>
-4.0375514881325

> <r_i_glide_ligand_efficiency>
-0.122350045094924

> <r_i_glide_ligand_efficiency_sa>
-0.392441969461114

> <r_i_glide_ligand_efficiency_ln>
-0.89793054563789

> <r_glide_XP_GScore>
-4.5532584881325

> <r_i_glide_gscore>
-4.5532584881325

> <r_i_glide_evdw>
-25.5808181762695

> <r_i_glide_ecoul>
-6.9104585647583

> <r_i_glide_energy>
-32.4912767410278

> <r_i_glide_einternal>
0.0

> <r_i_glide_emodel>
-37.8499087690671

> <r_glide_XP_HBond>
-2.14

> <i_i_glide_confnum>
1

> <i_i_glide_posenum>
1

> <r_i_glide_eff_state_penalty>
0.515707

> <i_glide_XP_PoseRank>
1

> <r_lp_tautomer_probability>


> <s_epik_Chemistry_Notes>


> <MW>


> <cLogP>


> <TPSA>


> <Rotatable Bonds>


> <Fraction sp3>


> <HBA>


> <HBD>


> <Structure ID>


> <Submission Fragments>


$$$$
ligprep_COVID_compounds-withfrags-smallmolecules-forvalidation.maegz:28
                    3D
 Structure written by MMmdl.
 70 74  0  0  1  0            999 V2000
    1.5439   -0.4457   26.4011 N   0  0  0  0  0  0
    2.0241    0.0467   25.4712 C   0  0  0  0  0  0
    2.6273    0.6626   24.3001 C   0  0  0  0  0  0
    3.9033    0.2335   23.8783 C   0  0  0  0  0  0
    4.5028    0.7670   22.7189 C   0  0  0  0  0  0
    5.8093    0.3266   22.3276 N   0  0  0  0  0  0
    5.9921   -0.5639   21.3250 C   0  0  0  0  0  0
    6.3751   -1.7110   21.5473 O   0  0  0  0  0  0
    5.8011   -0.1638   19.9182 C   0  0  0  0  0  0
    5.6469    1.0380   19.2798 C   0  0  0  0  0  0
    5.6646    0.7758   17.8849 C   0  0  0  0  0  0
    5.8677   -0.5659   17.7708 C   0  0  0  0  0  0
    5.9328   -1.1499   18.9880 O   0  0  0  0  0  0
    7.0177    0.7712   23.0687 C   0  0  1  0  0  0
    6.9840    2.2774   23.4369 C   0  0  0  0  0  0
    6.1090    2.7319   24.1707 O   0  0  0  0  0  0
    7.9778    3.0360   22.9651 N   0  0  0  0  0  0
    8.2193    4.4326   23.3059 C   0  0  0  0  0  0
    9.3809    4.5599   24.3085 C   0  0  0  0  0  0
   10.7238    4.1464   23.7244 C   0  0  0  0  0  0
   11.1403    2.7958   23.7348 C   0  0  0  0  0  0
   12.3614    2.4227   23.1430 C   0  0  0  0  0  0
   13.1846    3.4041   22.5637 C   0  0  0  0  0  0
   12.7953    4.7564   22.5811 C   0  0  0  0  0  0
   13.6015    5.7003   22.0408 F   0  0  0  0  0  0
   11.5681    5.1267   23.1625 C   0  0  0  0  0  0
    7.4044   -0.0527   24.2909 C   0  0  0  0  0  0
    6.8950   -1.3483   24.5677 C   0  0  0  0  0  0
    7.3473   -2.0805   25.6803 C   0  0  0  0  0  0
    8.3193   -1.5040   26.5091 C   0  0  0  0  0  0
    8.8380   -0.2843   26.2876 N   0  0  0  0  0  0
    8.3784    0.4037   25.2221 C   0  0  0  0  0  0
    3.8255    1.7997   22.0277 C   0  0  0  0  0  0
    2.5560    2.2364   22.4447 C   0  0  0  0  0  0
    1.9365    1.6567   23.5704 C   0  0  0  0  0  0
    0.6887    2.0740   23.9690 O   0  0  0  0  0  0
   -0.3426    2.0039   23.0659 C   0  0  0  0  0  0
   -1.1391    3.1455   22.8495 C   0  0  0  0  0  0
   -2.2266    3.0941   21.9565 C   0  0  0  0  0  0
   -2.5336    1.8989   21.2697 C   0  0  0  0  0  0
   -3.7342    1.8598   20.3345 C   0  0  0  0  0  0
   -3.8843    0.6618   19.7709 F   0  0  0  0  0  0
   -4.8375    2.1454   21.0217 F   0  0  0  0  0  0
   -3.5874    2.7677   19.3716 F   0  0  0  0  0  0
   -1.7307    0.7551   21.4823 C   0  0  0  0  0  0
   -0.6478    0.8063   22.3817 C   0  0  0  0  0  0
    4.4049   -0.5369   24.4422 H   0  0  0  0  0  0
    5.5767    2.0135   19.7301 H   0  0  0  0  0  0
    5.5687    1.4848   17.0758 H   0  0  0  0  0  0
    5.9752   -1.2522   16.9462 H   0  0  0  0  0  0
    7.8530    0.6469   22.3843 H   0  0  0  0  0  0
    8.6103    2.6054   22.2987 H   0  0  0  0  0  0
    8.4437    4.9821   22.3917 H   0  0  0  0  0  0
    7.3190    4.8934   23.7163 H   0  0  0  0  0  0
    9.4489    5.5933   24.6536 H   0  0  0  0  0  0
    9.1749    3.9603   25.1963 H   0  0  0  0  0  0
   10.5232    2.0314   24.1726 H   0  0  0  0  0  0
   12.6732    1.3880   23.1403 H   0  0  0  0  0  0
   14.1247    3.1168   22.1152 H   0  0  0  0  0  0
   11.2648    6.1650   23.1540 H   0  0  0  0  0  0
    6.1481   -1.8065   23.9422 H   0  0  0  0  0  0
    6.9559   -3.0652   25.8899 H   0  0  0  0  0  0
    8.6897   -2.0345   27.3715 H   0  0  0  0  0  0
    8.8167    1.3814   25.1276 H   0  0  0  0  0  0
    4.2715    2.3166   21.1998 H   0  0  0  0  0  0
    2.0632    3.0301   21.9011 H   0  0  0  0  0  0
   -0.9185    4.0619   23.3786 H   0  0  0  0  0  0
   -2.8373    3.9724   21.8049 H   0  0  0  0  0  0
   -1.9485   -0.1703   20.9689 H   0  0  0  0  0  0
   -0.0605   -0.0808   22.5562 H   0  0  0  0  0  0
  1  2  3  0  0  0
  2  3  1  0  0  0
  3  4  2  0  0  0
  3 35  1  0  0  0
  4  5  1  0  0  0
  4 47  1  0  0  0
  5  6  1  0  0  0
  5 33  2  0  0  0
  6  7  1  0  0  0
  6 14  1  0  0  0
  7  8  2  0  0  0
  7  9  1  0  0  0
  9 10  2  0  0  0
  9 13  1  0  0  0
 10 11  1  0  0  0
 10 48  1  0  0  0
 11 12  2  0  0  0
 11 49  1  0  0  0
 12 13  1  0  0  0
 12 50  1  0  0  0
 14 15  1  0  0  0
 14 27  1  0  0  0
 14 51  1  0  0  0
 15 16  2  0  0  0
 15 17  1  0  0  0
 17 18  1  0  0  0
 17 52  1  0  0  0
 18 19  1  0  0  0
 18 53  1  0  0  0
 18 54  1  0  0  0
 19 20  1  0  0  0
 19 55  1  0  0  0
 19 56  1  0  0  0
 20 21  2  0  0  0
 20 26  1  0  0  0
 21 22  1  0  0  0
 21 57  1  0  0  0
 22 23  2  0  0  0
 22 58  1  0  0  0
 23 24  1  0  0  0
 23 59  1  0  0  0
 24 25  1  0  0  0
 24 26  2  0  0  0
 26 60  1  0  0  0
 27 28  2  0  0  0
 27 32  1  0  0  0
 28 29  1  0  0  0
 28 61  1  0  0  0
 29 30  2  0  0  0
 29 62  1  0  0  0
 30 31  1  0  0  0
 30 63  1  0  0  0
 31 32  2  0  0  0
 32 64  1  0  0  0
 33 34  1  0  0  0
 33 65  1  0  0  0
 34 35  2  0  0  0
 34 66  1  0  0  0
 35 36  1  0  0  0
 36 37  1  0  0  0
 37 38  2  0  0  0
 37 46  1  0  0  0
 38 39  1  0  0  0
 38 67  1  0  0  0
 39 40  2  0  0  0
 39 68  1  0  0  0
 40 41  1  0  0  0
 40 45  1  0  0  0
 41 42  1  0  0  0
 41 43  1  0  0  0
 41 44  1  0  0  0
 45 46  2  0  0  0
 45 69  1  0  0  0
 46 70  1  0  0  0
M  END
> <s_m_entry_id>
1839

> <s_m_entry_name>
Compounds-withfrags-for-validation-docking.1889

> <s_m_Source_Path>
/home/rodolpho/data/melina/maestro/glide-dock_XP_5RGK_M-PRO_VALIDATION

> <s_m_Source_File>
glide-dock_XP_5RGK_M-PRO_VALIDATION_pv.maegz

> <i_m_Source_File_Index>
1839

> <CID>
ALP-POS-b0bc6a46-27

> <Potency>
99.5

> <pIC50>
4.00218

> <Source>
Postera

> <smiles>
N#Cc1cc(N(C(=O)c2ccco2)C(C(=O)NCCc2cccc(F)c2)c2cccnc2)ccc1Oc1ccc(C(F)(F)F)cc1

> <Outcome>
Inactive

> <StandardizerResult>
Clear Stereo (ID: ClearStereo)
Wedge Clean (ID: WedgeClean)
Mesomerize (ID: Mesomerize)
Tautomerize (ID: Tautomerize)
Aromatize (ID: Aromatize)
Add Explicit Hydrogens (ID: AddExplicitH)
Neutralize (ID: Neutralize)
Clean 2D (ID: Clean2D)

> <chiral flag>
0

> <version>
0

> <i_lp_mmshare_version>
41011

> <i_f3d_flags>
0

> <s_epik_input>
RkMoRikoRiljKFtjSF1bY0hdMSlbY0hdW2NIXWMxT2MyW2NIXVtjSF1jKFtjSF1jMkMjTilOKEMoPU8pYzNbY0hdW2NIXVtjSF1vMylbQ0BIXShjNFtjSF1bY0hdW2NIXW5bY0hdNClDKD1PKVtOSF1bQ0gyXVtDSDJdYzVbY0hdW2NIXVtjSF1jKEYpW2NIXTU=

> <s_epik_cmdline>
J2VwaWtfcHl0aG9uJywgJy1waHQnLCAnMC41JywgJy1waCcsICc3LjQnLCAnLXRuJywgJzgnLCAnLW1hJywgJzIwMCcsICctaW1hZScsICc8aW5maWxlLm1hZT4nLCAnLW9tYWUnLCAnPG91dGZpbGUubWFlPic=

> <r_lp_tautomer_probability>
1.0

> <r_epik_Ionization_Penalty>
5.0E-4

> <r_epik_Ionization_Penalty_Charging>
0.0

> <r_epik_Ionization_Penalty_Neutral>
5.0E-4

> <r_epik_State_Penalty>
0.0

> <r_epik_Charging_Adjusted_Penalty>
0.0

> <i_epik_Tot_Q>
0

> <i_epik_Tot_abs_Q>
0

> <s_lp_Force_Field>
OPLS3

> <r_lp_Energy>
81.3393

> <b_lp_Chiralities_Consistent>
1

> <s_lp_Variant>
ligprep_COVID_compounds-withfrags-smallmolecules-forvalidation.maegz:28-1

> <i_glide_original_lignum>
151

> <s_i_glide_gridfile>
glide-grid_5RGK_M-PRO_COVID

> <i_i_glide_lignum>
151

> <r_i_docking_score>
-4.03496256670649

> <r_i_glide_ligand_efficiency>
-0.0877165775370977

> <r_i_glide_ligand_efficiency_sa>
-0.314292695995998

> <r_i_glide_ligand_efficiency_ln>
-0.835631026491285

> <r_glide_XP_GScore>
-4.03496256670649

> <r_i_glide_gscore>
-4.03496256670649

> <r_i_glide_evdw>
-46.1456031799316

> <r_i_glide_ecoul>
-5.96995210647583

> <r_i_glide_energy>
-52.1155552864075

> <r_i_glide_einternal>
11.7250900268555

> <r_i_glide_emodel>
-68.3254690524481

> <r_glide_XP_HBond>
-0.886801373853613

> <i_i_glide_confnum>
14

> <i_i_glide_posenum>
12

> <r_i_glide_eff_state_penalty>
0.0

> <i_glide_XP_PoseRank>
1

> <MW>
628.17

> <cLogP>
7.24

> <TPSA>
108.46

> <Rotatable Bonds>
10

> <Fraction sp3>
0.12

> <HBA>
6

> <HBD>
1

> <s_epik_Chemistry_Notes>


> <Structure ID>


> <Submission Fragments>


$$$$
ligprep_COVID_compounds-withfrags-smallmolecules-forvalidation.maegz:6
                    3D
 Structure written by MMmdl.
 57 60  0  0  1  0            999 V2000
    1.8476    3.1366   25.2945 C   0  0  0  0  0  0
    0.9745    3.2387   24.0191 C   0  0  2  0  0  0
    0.1423    1.9585   23.7936 C   0  0  0  0  0  0
   -0.4749    1.3424   24.9098 C   0  0  0  0  0  0
   -1.2369    0.1732   24.7709 C   0  0  0  0  0  0
   -1.4144   -0.3933   23.5027 C   0  0  0  0  0  0
   -0.8465    0.2136   22.3677 C   0  0  0  0  0  0
   -1.0998   -0.3875   21.1654 O   0  0  0  0  0  0
   -0.0624    1.4001   22.4934 C   0  0  0  0  0  0
    0.5031    2.0835   21.2818 C   0  0  0  0  0  0
    0.5356    1.5555   20.1707 O   0  0  0  0  0  0
    1.0813    3.4237   21.4974 C   0  0  0  0  0  0
    1.8708    3.5674   22.7843 C   0  0  1  0  0  0
    2.7053    4.8932   22.8820 C   0  0  2  0  0  0
    2.9104    5.6856   21.5545 C   0  0  2  0  0  0
    3.5749    7.1007   21.6666 C   0  0  2  0  0  0
    4.9263    7.0363   22.3291 N   0  3  0  0  0  0
    5.9958    7.7689   21.6071 C   0  0  0  0  0  0
    4.9810    7.2803   23.7952 C   0  0  0  0  0  0
    2.5971    8.2332   22.1103 C   0  0  0  0  0  0
    3.2768    9.2327   22.4540 O   0  5  0  0  0  0
    1.2015    8.0239   22.0552 C   0  0  0  0  0  0
    0.2442    9.0598   22.5183 C   0  0  0  0  0  0
    0.7962   10.1544   23.0355 N   0  0  0  0  0  0
   -0.9825    8.9975   22.4700 O   0  0  0  0  0  0
    0.6413    6.7538   21.4928 C   0  0  0  0  0  0
   -0.5481    6.4382   21.5741 O   0  0  0  0  0  0
    1.6015    5.7968   20.7493 C   0  0  2  0  0  0
    0.9617    4.4174   20.5937 C   0  0  0  0  0  0
    0.3372    4.3078   19.4081 O   0  0  0  0  0  0
    1.9013    6.3176   19.4576 O   0  0  0  0  0  0
    3.9749    4.5009   23.3741 O   0  0  0  0  0  0
    0.0863    4.3202   24.2267 O   0  0  0  0  0  0
    2.5288    2.2877   25.2331 H   0  0  0  0  0  0
    1.2629    3.0281   26.2062 H   0  0  0  0  0  0
    2.4538    4.0278   25.4513 H   0  0  0  0  0  0
   -0.3866    1.7631   25.8984 H   0  0  0  0  0  0
   -1.6933   -0.2824   25.6373 H   0  0  0  0  0  0
   -2.0088   -1.2900   23.4048 H   0  0  0  0  0  0
   -1.6733   -1.1359   21.2235 H   0  0  0  0  0  0
    2.5908    2.7485   22.7049 H   0  0  0  0  0  0
    2.2526    5.5640   23.6111 H   0  0  0  0  0  0
    3.5749    5.0665   20.9707 H   0  0  0  0  0  0
    3.8168    7.3525   20.6337 H   0  0  0  0  0  0
    5.8233    8.8458   21.6157 H   0  0  0  0  0  0
    6.0648    7.4404   20.5696 H   0  0  0  0  0  0
    6.9649    7.5756   22.0676 H   0  0  0  0  0  0
    5.1041    8.3385   24.0276 H   0  0  0  0  0  0
    5.8338    6.7535   24.2233 H   0  0  0  0  0  0
    4.0838    6.9332   24.3057 H   0  0  0  0  0  0
    1.8159   10.1846   23.0253 H   0  0  0  0  0  0
    0.2303   10.9153   23.3740 H   0  0  0  0  0  0
    0.4885    5.1321   18.9629 H   0  0  0  0  0  0
    2.5961    5.7867   19.0853 H   0  0  0  0  0  0
    4.5362    4.2363   22.6421 H   0  0  0  0  0  0
    0.5807    5.1091   24.3844 H   0  0  0  0  0  0
    5.1828    6.0579   22.1993 H   0  0  0  0  0  0
  1  2  1  0  0  0
  1 34  1  0  0  0
  1 35  1  0  0  0
  1 36  1  0  0  0
  2  3  1  0  0  0
  2 33  1  0  0  0
  2 13  1  0  0  0
  3  4  2  0  0  0
  3  9  1  0  0  0
  4  5  1  0  0  0
  4 37  1  0  0  0
  5  6  2  0  0  0
  5 38  1  0  0  0
  6  7  1  0  0  0
  6 39  1  0  0  0
  7  8  1  0  0  0
  7  9  2  0  0  0
  8 40  1  0  0  0
  9 10  1  0  0  0
 10 11  2  0  0  0
 10 12  1  0  0  0
 12 13  1  0  0  0
 12 29  2  0  0  0
 13 14  1  0  0  0
 13 41  1  0  0  0
 14 15  1  0  0  0
 14 32  1  0  0  0
 14 42  1  0  0  0
 15 16  1  0  0  0
 15 28  1  0  0  0
 15 43  1  0  0  0
 16 17  1  0  0  0
 16 20  1  0  0  0
 16 44  1  0  0  0
 17 18  1  0  0  0
 17 19  1  0  0  0
 17 57  1  0  0  0
 18 45  1  0  0  0
 18 46  1  0  0  0
 18 47  1  0  0  0
 19 48  1  0  0  0
 19 49  1  0  0  0
 19 50  1  0  0  0
 20 21  1  0  0  0
 20 22  2  0  0  0
 22 23  1  0  0  0
 22 26  1  0  0  0
 23 24  1  0  0  0
 23 25  2  0  0  0
 24 51  1  0  0  0
 24 52  1  0  0  0
 26 27  2  0  0  0
 26 28  1  0  0  0
 28 29  1  0  0  0
 28 31  1  0  0  0
 29 30  1  0  0  0
 30 53  1  0  0  0
 31 54  1  0  0  0
 32 55  1  0  0  0
 33 56  1  0  0  0
M  CHG  2  17   1  21  -1
M  END
> <s_m_entry_id>
1871

> <s_m_entry_name>
Compounds-withfrags-for-validation-docking.1911

> <s_m_Source_Path>
/home/rodolpho/data/melina/maestro/glide-dock_XP_5RGK_M-PRO_VALIDATION

> <s_m_Source_File>
glide-dock_XP_5RGK_M-PRO_VALIDATION_pv.maegz

> <i_m_Source_File_Index>
1871

> <CID>
Oxitetracyclin

> <Potency>
15.15

> <pIC50>
4.81959

> <Source>
https://doi.org/10.1101/2020.03.23.004580

> <smiles>
C(C1(C2=C(C(=C(C(O[H])=C2C(O[H])=C2C1(C(C1(C(N(C([H])([H])[H])C([H])([H])[H])([H])C(=O)C(=C(N([H])[H])O[H])C(=O)C1(C2=O)O[H])[H])(O[H])[H])[H])[H])[H])[H])O[H])([H])([H])[H]

> <Outcome>
Inactive

> <StandardizerResult>
Clear Stereo (ID: ClearStereo)
Wedge Clean (ID: WedgeClean)
Mesomerize (ID: Mesomerize)
Tautomerize (ID: Tautomerize)
Aromatize (ID: Aromatize)
Add Explicit Hydrogens (ID: AddExplicitH)
Neutralize (ID: Neutralize)
Clean 2D (ID: Clean2D)

> <chiral flag>
0

> <version>
0

> <i_lp_mmshare_version>
41011

> <i_f3d_flags>
0

> <s_epik_input>
W09IXWMxW2NIXVtjSF1bY0hdYyhbQ0BdMihbQ0gzXSlbT0hdKWMxQyg9TylDKD1DM1tPSF0pW0NASF0yW0NAQEhdKFtPSF0pW0NAQEhdKFtDQEBdMzRbT0hdKVtDQEhdKE4oW0NIM10pW0NIM10pQyg9TylbQ0BIXShDND1PKUMoPU8pW05IMl0=

> <s_epik_cmdline>
J2VwaWtfcHl0aG9uJywgJy1waHQnLCAnMC41JywgJy1waCcsICc3LjQnLCAnLXRuJywgJzgnLCAnLW1hJywgJzIwMCcsICctaW1hZScsICc8aW5maWxlLm1hZT4nLCAnLW9tYWUnLCAnPG91dGZpbGUubWFlPic=

> <r_epik_Ionization_Penalty>
0.6144

> <r_epik_Ionization_Penalty_Charging>
0.5087

> <r_epik_Ionization_Penalty_Neutral>
0.1057

> <r_epik_State_Penalty>
0.5157

> <r_epik_Charging_Adjusted_Penalty>
1.02439

> <i_epik_Tot_Q>
0

> <i_epik_Tot_abs_Q>
2

> <s_lp_Force_Field>
OPLS3

> <r_lp_Energy>
62.6712

> <b_lp_Chiralities_Consistent>
1

> <s_lp_Variant>
ligprep_COVID_compounds-withfrags-smallmolecules-forvalidation.maegz:6-46

> <i_glide_original_lignum>
98

> <s_i_glide_gridfile>
glide-grid_5RGK_M-PRO_COVID

> <i_i_glide_lignum>
98

> <r_i_docking_score>
-4.01450399983054

> <r_i_glide_ligand_efficiency>
-0.121651636358501

> <r_i_glide_ligand_efficiency_sa>
-0.39020179946528

> <r_i_glide_ligand_efficiency_ln>
-0.892804903573043

> <r_glide_XP_GScore>
-4.53021099983054

> <r_i_glide_gscore>
-4.53021099983054

> <r_i_glide_evdw>
-11.1741847991943

> <r_i_glide_ecoul>
-15.1776266098022

> <r_i_glide_energy>
-26.3518114089966

> <r_i_glide_einternal>
3.17318391799927

> <r_i_glide_emodel>
-26.5520729086969

> <r_glide_XP_HBond>
-2.4

> <i_i_glide_confnum>
1

> <i_i_glide_posenum>
20

> <r_i_glide_eff_state_penalty>
0.515707

> <i_glide_XP_PoseRank>
1

> <r_lp_tautomer_probability>


> <s_epik_Chemistry_Notes>


> <MW>


> <cLogP>


> <TPSA>


> <Rotatable Bonds>


> <Fraction sp3>


> <HBA>


> <HBD>


> <Structure ID>


> <Submission Fragments>


$$$$
ligprep_COVID_compounds-withfrags-smallmolecules-forvalidation.maegz:6
                    3D
 Structure written by MMmdl.
 56 59  0  0  1  0            999 V2000
    6.0456    1.9612   23.3665 C   0  0  0  0  0  0
    4.7940    1.2762   22.7670 C   0  0  2  0  0  0
    5.2404    0.5724   21.4758 C   0  0  0  0  0  0
    6.1925   -0.4657   21.5708 C   0  0  0  0  0  0
    6.7365   -1.0453   20.4168 C   0  0  0  0  0  0
    6.3986   -0.5547   19.1506 C   0  0  0  0  0  0
    5.4409    0.4628   19.0312 C   0  0  0  0  0  0
    5.1749    0.9129   17.7708 O   0  0  0  0  0  0
    4.7890    0.9754   20.1893 C   0  0  0  0  0  0
    3.5735    1.8261   20.0706 C   0  0  0  0  0  0
    3.1749    2.2363   18.9832 O   0  0  0  0  0  0
    2.7979    1.9918   21.3179 C   0  0  0  0  0  0
    3.6442    2.3255   22.5376 C   0  0  1  0  0  0
    2.7483    2.7943   23.7301 C   0  0  1  0  0  0
    1.5067    1.8852   23.8884 C   0  0  1  0  0  0
    0.7633    1.7949   25.2525 C   0  0  1  0  0  0
   -0.0390    2.9463   25.7362 N   0  0  0  0  0  0
    0.5601    4.2652   25.6046 C   0  0  0  0  0  0
   -1.4770    2.9583   25.4709 C   0  0  0  0  0  0
   -0.0220    0.4662   25.2881 C   0  0  0  0  0  0
   -0.0017    0.0598   26.4788 O   0  5  0  0  0  0
   -0.5330   -0.0793   24.0878 C   0  0  0  0  0  0
   -1.2420   -1.3818   24.0930 C   0  0  0  0  0  0
   -1.4526   -1.9086   25.2971 N   0  0  0  0  0  0
   -1.6276   -2.0085   23.1077 O   0  0  0  0  0  0
   -0.3735    0.6363   22.7700 C   0  0  0  0  0  0
   -1.0139    0.3118   21.7656 O   0  0  0  0  0  0
    0.5888    1.8603   22.6411 C   0  0  2  0  0  0
    1.4505    1.8353   21.3582 C   0  0  0  0  0  0
    0.6956    1.6531   20.2600 O   0  0  0  0  0  0
   -0.1948    3.0333   22.5513 O   0  0  0  0  0  0
    3.4927    2.9568   24.9239 O   0  0  0  0  0  0
    4.3580    0.3093   23.7018 O   0  0  0  0  0  0
    6.4944    2.6370   22.6371 H   0  0  0  0  0  0
    6.8156    1.2418   23.6456 H   0  0  0  0  0  0
    5.8391    2.5550   24.2517 H   0  0  0  0  0  0
    6.5329   -0.8184   22.5328 H   0  0  0  0  0  0
    7.4535   -1.8445   20.5107 H   0  0  0  0  0  0
    6.8617   -0.9758   18.2703 H   0  0  0  0  0  0
    4.4498    1.5318   17.7584 H   0  0  0  0  0  0
    4.1501    3.2342   22.2244 H   0  0  0  0  0  0
    2.3846    3.7918   23.4843 H   0  0  0  0  0  0
    1.9791    0.9035   23.8686 H   0  0  0  0  0  0
    1.5635    1.7228   25.9916 H   0  0  0  0  0  0
    1.5804    4.2679   25.9854 H   0  0  0  0  0  0
   -0.0012    4.9967   26.1871 H   0  0  0  0  0  0
    0.5654    4.5999   24.5683 H   0  0  0  0  0  0
   -1.9584    2.0535   25.8433 H   0  0  0  0  0  0
   -1.7127    3.0540   24.4141 H   0  0  0  0  0  0
   -1.9483    3.7938   25.9900 H   0  0  0  0  0  0
   -1.0724   -1.3760   26.0809 H   0  0  0  0  0  0
   -1.9319   -2.7859   25.4149 H   0  0  0  0  0  0
   -0.1934    1.5082   20.5647 H   0  0  0  0  0  0
    0.3844    3.7725   22.4510 H   0  0  0  0  0  0
    4.1188    3.6528   24.7853 H   0  0  0  0  0  0
    5.0410   -0.3343   23.8164 H   0  0  0  0  0  0
  1  2  1  0  0  0
  1 34  1  0  0  0
  1 35  1  0  0  0
  1 36  1  0  0  0
  2  3  1  0  0  0
  2 33  1  0  0  0
  2 13  1  0  0  0
  3  4  2  0  0  0
  3  9  1  0  0  0
  4  5  1  0  0  0
  4 37  1  0  0  0
  5  6  2  0  0  0
  5 38  1  0  0  0
  6  7  1  0  0  0
  6 39  1  0  0  0
  7  8  1  0  0  0
  7  9  2  0  0  0
  8 40  1  0  0  0
  9 10  1  0  0  0
 10 11  2  0  0  0
 10 12  1  0  0  0
 12 13  1  0  0  0
 12 29  2  0  0  0
 13 14  1  0  0  0
 13 41  1  0  0  0
 14 15  1  0  0  0
 14 32  1  0  0  0
 14 42  1  0  0  0
 15 16  1  0  0  0
 15 28  1  0  0  0
 15 43  1  0  0  0
 16 17  1  0  0  0
 16 20  1  0  0  0
 16 44  1  0  0  0
 17 18  1  0  0  0
 17 19  1  0  0  0
 18 45  1  0  0  0
 18 46  1  0  0  0
 18 47  1  0  0  0
 19 48  1  0  0  0
 19 49  1  0  0  0
 19 50  1  0  0  0
 20 21  1  0  0  0
 20 22  2  0  0  0
 22 23  1  0  0  0
 22 26  1  0  0  0
 23 24  1  0  0  0
 23 25  2  0  0  0
 24 51  1  0  0  0
 24 52  1  0  0  0
 26 27  2  0  0  0
 26 28  1  0  0  0
 28 29  1  0  0  0
 28 31  1  0  0  0
 29 30  1  0  0  0
 30 53  1  0  0  0
 31 54  1  0  0  0
 32 55  1  0  0  0
 33 56  1  0  0  0
M  CHG  1  21  -1
M  END
> <s_m_entry_id>
1902

> <s_m_entry_name>
Compounds-withfrags-for-validation-docking.1911

> <s_m_Source_Path>
/home/rodolpho/data/melina/maestro/glide-dock_XP_5RGK_M-PRO_VALIDATION

> <s_m_Source_File>
glide-dock_XP_5RGK_M-PRO_VALIDATION_pv.maegz

> <i_m_Source_File_Index>
1902

> <CID>
Oxitetracyclin

> <Potency>
15.15

> <pIC50>
4.81959

> <Source>
https://doi.org/10.1101/2020.03.23.004580

> <smiles>
C(C1(C2=C(C(=C(C(O[H])=C2C(O[H])=C2C1(C(C1(C(N(C([H])([H])[H])C([H])([H])[H])([H])C(=O)C(=C(N([H])[H])O[H])C(=O)C1(C2=O)O[H])[H])(O[H])[H])[H])[H])[H])[H])O[H])([H])([H])[H]

> <Outcome>
Inactive

> <StandardizerResult>
Clear Stereo (ID: ClearStereo)
Wedge Clean (ID: WedgeClean)
Mesomerize (ID: Mesomerize)
Tautomerize (ID: Tautomerize)
Aromatize (ID: Aromatize)
Add Explicit Hydrogens (ID: AddExplicitH)
Neutralize (ID: Neutralize)
Clean 2D (ID: Clean2D)

> <chiral flag>
0

> <version>
0

> <i_lp_mmshare_version>
41011

> <i_f3d_flags>
0

> <s_epik_input>
W09IXWMxW2NIXVtjSF1bY0hdYyhbQ0BdMihbQ0gzXSlbT0hdKWMxQyg9TylDKD1DM1tPSF0pW0NASF0yW0NASF0oW09IXSlbQ0BIXShbQ0BAXTM0W09IXSlbQ0BASF0oTihbQ0gzXSlbQ0gzXSlDKD1PKVtDQEhdKEM0PU8pQyg9TylbTkgyXQ==

> <s_epik_cmdline>
J2VwaWtfcHl0aG9uJywgJy1waHQnLCAnMC41JywgJy1waCcsICc3LjQnLCAnLXRuJywgJzgnLCAnLW1hJywgJzIwMCcsICctaW1hZScsICc8aW5maWxlLm1hZT4nLCAnLW9tYWUnLCAnPG91dGZpbGUubWFlPic=

> <r_epik_Ionization_Penalty>
0.3646

> <r_epik_Ionization_Penalty_Charging>
0.0013

> <r_epik_Ionization_Penalty_Neutral>
0.3633

> <r_epik_State_Penalty>
0.3215

> <r_epik_Charging_Adjusted_Penalty>
0.322822

> <i_epik_Tot_Q>
-1

> <i_epik_Tot_abs_Q>
1

> <s_lp_Force_Field>
OPLS3

> <r_lp_Energy>
66.4476

> <b_lp_Chiralities_Consistent>
1

> <s_lp_Variant>
ligprep_COVID_compounds-withfrags-smallmolecules-forvalidation.maegz:6-7

> <i_glide_original_lignum>
59

> <s_i_glide_gridfile>
glide-grid_5RGK_M-PRO_COVID

> <i_i_glide_lignum>
59

> <r_i_docking_score>
-3.9968251736911

> <r_i_glide_ligand_efficiency>
-0.121115914354276

> <r_i_glide_ligand_efficiency_sa>
-0.388483452747396

> <r_i_glide_ligand_efficiency_ln>
-0.888873224175695

> <r_glide_XP_GScore>
-4.3183221736911

> <r_i_glide_gscore>
-4.3183221736911

> <r_i_glide_evdw>
-24.2221279144287

> <r_i_glide_ecoul>
-9.94696807861328

> <r_i_glide_energy>
-34.169095993042

> <r_i_glide_einternal>
0.0

> <r_i_glide_emodel>
-34.1895761280977

> <r_glide_XP_HBond>
-0.853138740099119

> <i_i_glide_confnum>
1

> <i_i_glide_posenum>
8

> <r_i_glide_eff_state_penalty>
0.321497

> <i_glide_XP_PoseRank>
1

> <r_lp_tautomer_probability>


> <s_epik_Chemistry_Notes>


> <MW>


> <cLogP>


> <TPSA>


> <Rotatable Bonds>


> <Fraction sp3>


> <HBA>


> <HBD>


> <Structure ID>


> <Submission Fragments>


$$$$
ligprep_COVID_compounds-withfrags-smallmolecules-forvalidation.maegz:39
                    3D
 Structure written by MMmdl.
 70 75  0  0  1  0            999 V2000
    3.2778    2.4568   24.6272 O   0  0  0  0  0  0
    3.6438    3.2845   23.7920 C   0  0  0  0  0  0
    3.5749    3.0582   22.4751 N   0  0  0  0  0  0
    2.8026    1.9993   21.8499 C   0  0  0  0  0  0
    3.0966    1.9163   20.3428 C   0  0  0  0  0  0
    4.3694    1.1909   19.9224 C   0  0  0  0  0  0
    4.8775    1.4361   18.6304 C   0  0  0  0  0  0
    5.9980    0.7340   18.1529 C   0  0  0  0  0  0
    6.6238   -0.2286   18.9667 C   0  0  0  0  0  0
    6.1248   -0.4804   20.2585 C   0  0  0  0  0  0
    6.6944   -1.4311   21.0329 F   0  0  0  0  0  0
    5.0144    0.2366   20.7424 C   0  0  0  0  0  0
    4.1475    4.6824   24.2112 C   0  0  1  0  0  0
    2.9800    5.6369   24.2463 C   0  0  0  0  0  0
    1.6898    5.3283   24.7484 C   0  0  0  0  0  0
    0.6699    6.2966   24.7286 C   0  0  0  0  0  0
    0.9644    7.5654   24.2022 C   0  0  0  0  0  0
    2.1771    7.8910   23.7158 N   0  0  0  0  0  0
    3.1406    6.9470   23.7397 C   0  0  0  0  0  0
    5.0087    4.7247   25.4206 N   0  0  0  0  0  0
    4.5479    4.6357   26.7030 C   0  0  0  0  0  0
    3.3884    4.3244   26.9746 O   0  0  0  0  0  0
    5.4770    4.8468   27.8467 C   0  0  0  0  0  0
    6.4836    5.7520   28.0770 C   0  0  0  0  0  0
    6.9893    5.4864   29.3788 C   0  0  0  0  0  0
    6.2407    4.4562   29.8684 C   0  0  0  0  0  0
    5.3053    4.0721   28.9609 O   0  0  0  0  0  0
    6.3867    4.9231   25.1356 C   0  0  0  0  0  0
    6.8248    6.1622   24.6230 C   0  0  0  0  0  0
    8.1840    6.3570   24.3231 C   0  0  0  0  0  0
    9.1105    5.3089   24.5132 C   0  0  0  0  0  0
   10.5198    5.5178   24.2093 C   0  0  0  0  0  0
   11.1101    6.6363   24.6163 N   0  0  0  0  0  0
   12.3791    6.5358   24.1801 N   0  0  0  0  0  0
   12.5932    5.3641   23.5040 C   0  0  0  0  0  0
   11.4489    4.6474   23.5685 C   0  0  0  0  0  0
   11.3472    3.2690   22.9976 C   0  0  0  0  0  0
   12.6464    2.7330   22.7273 O   0  0  0  0  0  0
   13.5216    3.6219   22.0223 C   0  0  0  0  0  0
   13.8392    4.8879   22.8588 C   0  0  0  0  0  0
    8.6654    4.0655   25.0064 C   0  0  0  0  0  0
    7.3106    3.8757   25.3218 C   0  0  0  0  0  0
    4.0760    3.7038   21.8621 H   0  0  0  0  0  0
    2.9186    1.0446   22.3614 H   0  0  0  0  0  0
    1.7541    2.2724   21.9757 H   0  0  0  0  0  0
    2.2631    1.4268   19.8446 H   0  0  0  0  0  0
    3.1233    2.9258   19.9302 H   0  0  0  0  0  0
    4.3971    2.1674   17.9960 H   0  0  0  0  0  0
    6.3647    0.9378   17.1600 H   0  0  0  0  0  0
    7.4761   -0.7844   18.6036 H   0  0  0  0  0  0
    4.6565    0.0026   21.7315 H   0  0  0  0  0  0
    4.7694    4.9932   23.3707 H   0  0  0  0  0  0
    1.4711    4.3517   25.1558 H   0  0  0  0  0  0
   -0.3143    6.0709   25.1104 H   0  0  0  0  0  0
    0.2089    8.3354   24.1702 H   0  0  0  0  0  0
    4.0920    7.2557   23.3304 H   0  0  0  0  0  0
    6.8258    6.5140   27.3924 H   0  0  0  0  0  0
    7.7981    5.9857   29.8917 H   0  0  0  0  0  0
    6.2330    3.9083   30.7993 H   0  0  0  0  0  0
    6.1248    6.9715   24.4735 H   0  0  0  0  0  0
    8.5172    7.3116   23.9416 H   0  0  0  0  0  0
   13.0727    7.2533   24.3556 H   0  0  0  0  0  0
   10.8435    2.5793   23.6739 H   0  0  0  0  0  0
   10.7659    3.2858   22.0838 H   0  0  0  0  0  0
   14.4351    3.0867   21.7724 H   0  0  0  0  0  0
   13.0486    3.8998   21.0787 H   0  0  0  0  0  0
   14.2723    5.6685   22.2331 H   0  0  0  0  0  0
   14.5670    4.6516   23.6313 H   0  0  0  0  0  0
    9.3586    3.2561   25.1700 H   0  0  0  0  0  0
    6.9914    2.9250   25.7133 H   0  0  0  0  0  0
  1  2  2  0  0  0
  2  3  1  0  0  0
  2 13  1  0  0  0
  3  4  1  0  0  0
  3 43  1  0  0  0
  4  5  1  0  0  0
  4 44  1  0  0  0
  4 45  1  0  0  0
  5  6  1  0  0  0
  5 46  1  0  0  0
  5 47  1  0  0  0
  6  7  2  0  0  0
  6 12  1  0  0  0
  7  8  1  0  0  0
  7 48  1  0  0  0
  8  9  2  0  0  0
  8 49  1  0  0  0
  9 10  1  0  0  0
  9 50  1  0  0  0
 10 11  1  0  0  0
 10 12  2  0  0  0
 12 51  1  0  0  0
 13 14  1  0  0  0
 13 20  1  0  0  0
 13 52  1  0  0  0
 14 15  2  0  0  0
 14 19  1  0  0  0
 15 16  1  0  0  0
 15 53  1  0  0  0
 16 17  2  0  0  0
 16 54  1  0  0  0
 17 18  1  0  0  0
 17 55  1  0  0  0
 18 19  2  0  0  0
 19 56  1  0  0  0
 20 21  1  0  0  0
 20 28  1  0  0  0
 21 22  2  0  0  0
 21 23  1  0  0  0
 23 24  2  0  0  0
 23 27  1  0  0  0
 24 25  1  0  0  0
 24 57  1  0  0  0
 25 26  2  0  0  0
 25 58  1  0  0  0
 26 27  1  0  0  0
 26 59  1  0  0  0
 28 29  2  0  0  0
 28 42  1  0  0  0
 29 30  1  0  0  0
 29 60  1  0  0  0
 30 31  2  0  0  0
 30 61  1  0  0  0
 31 32  1  0  0  0
 31 41  1  0  0  0
 32 33  2  0  0  0
 32 36  1  0  0  0
 33 34  1  0  0  0
 34 35  1  0  0  0
 34 62  1  0  0  0
 35 36  2  0  0  0
 35 40  1  0  0  0
 36 37  1  0  0  0
 37 38  1  0  0  0
 37 63  1  0  0  0
 37 64  1  0  0  0
 38 39  1  0  0  0
 39 40  1  0  0  0
 39 65  1  0  0  0
 39 66  1  0  0  0
 40 67  1  0  0  0
 40 68  1  0  0  0
 41 42  2  0  0  0
 41 69  1  0  0  0
 42 70  1  0  0  0
M  END
> <s_m_entry_id>
1903

> <s_m_entry_name>
Compounds-withfrags-for-validation-docking.1878

> <s_m_Source_Path>
/home/rodolpho/data/melina/maestro/glide-dock_XP_5RGK_M-PRO_VALIDATION

> <s_m_Source_File>
glide-dock_XP_5RGK_M-PRO_VALIDATION_pv.maegz

> <i_m_Source_File_Index>
1903

> <CID>
ALP-POS-b0bc6a46-16

> <Potency>
43.0301

> <pIC50>
4.36623

> <Source>
Postera

> <smiles>
O=C(NCCc1cccc(F)c1)C(c1cccnc1)N(C(=O)c1ccco1)c1ccc(-c2n[nH]c3c2COCC3)cc1

> <Outcome>
Inactive

> <StandardizerResult>
Clear Stereo (ID: ClearStereo)
Wedge Clean (ID: WedgeClean)
Mesomerize (ID: Mesomerize)
Tautomerize (ID: Tautomerize)
Aromatize (ID: Aromatize)
Add Explicit Hydrogens (ID: AddExplicitH)
Neutralize (ID: Neutralize)
Clean 2D (ID: Clean2D)

> <chiral flag>
0

> <version>
0

> <i_lp_mmshare_version>
41011

> <i_f3d_flags>
0

> <s_epik_input>
RmMoW2NIXTEpW2NIXVtjSF1bY0hdYzFbQ0gyXVtDSDJdW05IXUMoPU8pW0NAQEhdKGMyW2NIXVtjSF1bY0hdbltjSF0yKU4oQyg9TyljM1tjSF1bY0hdW2NIXW8zKWM0W2NIXVtjSF1jKFtjSF1bY0hdNCktYyhuW25IXTUpYyhjNTYpW0NIMl1PW0NIMl1bQ0gyXTY=

> <s_epik_cmdline>
J2VwaWtfcHl0aG9uJywgJy1waHQnLCAnMC41JywgJy1waCcsICc3LjQnLCAnLXRuJywgJzgnLCAnLW1hJywgJzIwMCcsICctaW1hZScsICc8aW5maWxlLm1hZT4nLCAnLW9tYWUnLCAnPG91dGZpbGUubWFlPic=

> <r_lp_tautomer_probability>
0.5

> <r_epik_Ionization_Penalty>
6.0E-4

> <r_epik_Ionization_Penalty_Charging>
0.0

> <r_epik_Ionization_Penalty_Neutral>
6.0E-4

> <r_epik_State_Penalty>
0.4107

> <r_epik_Charging_Adjusted_Penalty>
0.41068

> <i_epik_Tot_Q>
0

> <i_epik_Tot_abs_Q>
0

> <s_lp_Force_Field>
OPLS3

> <r_lp_Energy>
75.9175

> <b_lp_Chiralities_Consistent>
1

> <s_lp_Variant>
ligprep_COVID_compounds-withfrags-smallmolecules-forvalidation.maegz:39-1

> <i_glide_original_lignum>
181

> <s_i_glide_gridfile>
glide-grid_5RGK_M-PRO_COVID

> <i_i_glide_lignum>
181

> <r_i_docking_score>
-3.99565778760555

> <r_i_glide_ligand_efficiency>
-0.0951347092287035

> <r_i_glide_ligand_efficiency_sa>
-0.330690783720494

> <r_i_glide_ligand_efficiency_ln>
-0.843380418969215

> <r_glide_XP_GScore>
-4.40633778760555

> <r_i_glide_gscore>
-4.40633778760555

> <r_i_glide_evdw>
-40.8459434509277

> <r_i_glide_ecoul>
-5.79056978225708

> <r_i_glide_energy>
-46.6365132331848

> <r_i_glide_einternal>
15.1592178344727

> <r_i_glide_emodel>
-61.163363167532

> <r_glide_XP_HBond>
-0.876400711696171

> <i_i_glide_confnum>
3

> <i_i_glide_posenum>
48

> <r_i_glide_eff_state_penalty>
0.41068

> <i_glide_XP_PoseRank>
1

> <MW>
565.21

> <cLogP>
5.02

> <TPSA>
113.35

> <Rotatable Bonds>
9

> <Fraction sp3>
0.19

> <HBA>
6

> <HBD>
2

> <s_epik_Chemistry_Notes>


> <Structure ID>


> <Submission Fragments>


$$$$
ligprep_COVID_compounds-withfrags-smallmolecules-forvalidation.maegz:48
                    3D
 Structure written by MMmdl.
 37 40  0  0  1  0            999 V2000
    5.6622    2.3964   23.3703 N   0  0  0  0  0  0
    5.9340    1.1246   22.8514 C   0  0  0  0  0  0
    6.4503    0.1723   23.5806 N   0  0  0  0  0  0
    6.6067   -0.9148   22.7696 N   0  0  0  0  0  0
    7.1237   -2.1432   23.3293 C   0  0  0  0  0  0
    7.1760   -3.1342   22.5985 O   0  0  0  0  0  0
    7.6250   -2.1965   24.7872 C   0  0  2  0  0  0
    9.1556   -2.0807   24.8324 C   0  0  0  0  0  0
    9.8080   -3.4478   24.5709 C   0  0  0  0  0  0
    9.4341   -4.3709   25.5847 O   0  0  0  0  0  0
    8.0873   -4.4704   25.8542 C   0  0  0  0  0  0
    7.6374   -5.6022   26.5594 C   0  0  0  0  0  0
    6.2697   -5.7651   26.8509 C   0  0  0  0  0  0
    5.3398   -4.7906   26.4441 C   0  0  0  0  0  0
    3.6586   -5.0034   26.7696 Cl  0  0  0  0  0  0
    5.7834   -3.6391   25.7695 C   0  0  0  0  0  0
    7.1536   -3.4707   25.4742 C   0  0  0  0  0  0
    6.2345   -0.6159   21.4547 C   0  0  0  0  0  0
    6.2856   -1.3295   20.2418 C   0  0  0  0  0  0
    5.8499   -0.7185   19.0532 C   0  0  0  0  0  0
    5.9752   -1.3652   17.8740 F   0  0  0  0  0  0
    5.2889    0.5702   19.0903 C   0  0  0  0  0  0
    5.2179    1.2693   20.3096 C   0  0  0  0  0  0
    5.7340    0.7145   21.5020 C   0  0  0  0  0  0
    5.5749    3.1588   22.6931 H   0  0  0  0  0  0
    6.1433    2.6700   24.2143 H   0  0  0  0  0  0
    7.2062   -1.3714   25.3624 H   0  0  0  0  0  0
    9.5168   -1.3264   24.1343 H   0  0  0  0  0  0
    9.4474   -1.7275   25.8204 H   0  0  0  0  0  0
    9.5341   -3.8463   23.5936 H   0  0  0  0  0  0
   10.8934   -3.3636   24.5707 H   0  0  0  0  0  0
    8.3421   -6.3646   26.8634 H   0  0  0  0  0  0
    5.9413   -6.6519   27.3737 H   0  0  0  0  0  0
    5.0686   -2.8845   25.4743 H   0  0  0  0  0  0
    6.6866   -2.3300   20.2157 H   0  0  0  0  0  0
    4.9214    1.0253   18.1818 H   0  0  0  0  0  0
    4.7881    2.2552   20.3292 H   0  0  0  0  0  0
  1  2  1  0  0  0
  1 25  1  0  0  0
  1 26  1  0  0  0
  2  3  2  0  0  0
  2 24  1  0  0  0
  3  4  1  0  0  0
  4  5  1  0  0  0
  4 18  1  0  0  0
  5  6  2  0  0  0
  5  7  1  0  0  0
  7  8  1  0  0  0
  7 17  1  0  0  0
  7 27  1  0  0  0
  8  9  1  0  0  0
  8 28  1  0  0  0
  8 29  1  0  0  0
  9 10  1  0  0  0
  9 30  1  0  0  0
  9 31  1  0  0  0
 10 11  1  0  0  0
 11 12  2  0  0  0
 11 17  1  0  0  0
 12 13  1  0  0  0
 12 32  1  0  0  0
 13 14  2  0  0  0
 13 33  1  0  0  0
 14 15  1  0  0  0
 14 16  1  0  0  0
 16 17  2  0  0  0
 16 34  1  0  0  0
 18 19  2  0  0  0
 18 24  1  0  0  0
 19 20  1  0  0  0
 19 35  1  0  0  0
 20 21  1  0  0  0
 20 22  2  0  0  0
 22 23  1  0  0  0
 22 36  1  0  0  0
 23 24  2  0  0  0
 23 37  1  0  0  0
M  END
> <s_m_entry_id>
1908

> <s_m_entry_name>
Compounds-withfrags-for-validation-docking.1869

> <s_m_Source_Path>
/home/rodolpho/data/melina/maestro/glide-dock_XP_5RGK_M-PRO_VALIDATION

> <s_m_Source_File>
glide-dock_XP_5RGK_M-PRO_VALIDATION_pv.maegz

> <i_m_Source_File_Index>
1908

> <CID>
ALP-POS-e2fddb0f-2

> <Potency>
99.5

> <pIC50>
4.00218

> <Source>
Postera

> <smiles>
Nc1nn(C(=O)C2CCOc3ccc(Cl)cc32)c2cc(F)ccc12

> <Outcome>
Inactive

> <StandardizerResult>
Clear Stereo (ID: ClearStereo)
Wedge Clean (ID: WedgeClean)
Mesomerize (ID: Mesomerize)
Tautomerize (ID: Tautomerize)
Aromatize (ID: Aromatize)
Add Explicit Hydrogens (ID: AddExplicitH)
Neutralize (ID: Neutralize)
Clean 2D (ID: Clean2D)

> <chiral flag>
0

> <version>
0

> <i_lp_mmshare_version>
41011

> <i_f3d_flags>
0

> <s_epik_input>
W2NIXTFjKEYpW2NIXVtjSF1jKGMxMiljKFtOSDJdKW5uMkMoPU8pW0NASF0oW0NIMl1bQ0gyXU8zKWMoYzM0KVtjSF1jKENsKVtjSF1bY0hdNA==

> <s_epik_cmdline>
J2VwaWtfcHl0aG9uJywgJy1waHQnLCAnMC41JywgJy1waCcsICc3LjQnLCAnLXRuJywgJzgnLCAnLW1hJywgJzIwMCcsICctaW1hZScsICc8aW5maWxlLm1hZT4nLCAnLW9tYWUnLCAnPG91dGZpbGUubWFlPic=

> <r_lp_tautomer_probability>
1.0

> <r_epik_Ionization_Penalty>
4.0E-4

> <r_epik_Ionization_Penalty_Charging>
0.0

> <r_epik_Ionization_Penalty_Neutral>
4.0E-4

> <r_epik_State_Penalty>
0.0

> <r_epik_Charging_Adjusted_Penalty>
0.0

> <i_epik_Tot_Q>
0

> <i_epik_Tot_abs_Q>
0

> <s_lp_Force_Field>
OPLS3

> <r_lp_Energy>
29.3127

> <b_lp_Chiralities_Consistent>
1

> <s_lp_Variant>
ligprep_COVID_compounds-withfrags-smallmolecules-forvalidation.maegz:48-1

> <i_glide_original_lignum>
213

> <s_i_glide_gridfile>
glide-grid_5RGK_M-PRO_COVID

> <i_i_glide_lignum>
213

> <r_i_docking_score>
-3.99004835933026

> <r_i_glide_ligand_efficiency>
-0.166252014972094

> <r_i_glide_ligand_efficiency_sa>
-0.479553793804471

> <r_i_glide_ligand_efficiency_ln>
-0.955001663776546

> <r_glide_XP_GScore>
-3.99004835933026

> <r_i_glide_gscore>
-3.99004835933026

> <r_i_glide_evdw>
-31.4118385314941

> <r_i_glide_ecoul>
-7.468834400177

> <r_i_glide_energy>
-38.8806729316711

> <r_i_glide_einternal>
0.0567024685442448

> <r_i_glide_emodel>
-44.9463288162486

> <r_glide_XP_HBond>
-0.35

> <i_i_glide_confnum>
1

> <i_i_glide_posenum>
1

> <r_i_glide_eff_state_penalty>
0.0

> <i_glide_XP_PoseRank>
1

> <MW>
345.07

> <cLogP>
3.62

> <TPSA>
70.14

> <Rotatable Bonds>
1

> <Fraction sp3>
0.18

> <HBA>
5

> <HBD>
1

> <s_epik_Chemistry_Notes>


> <Structure ID>


> <Submission Fragments>


$$$$
ligprep_COVID_compounds-withfrags-smallmolecules-forvalidation.maegz:41
                    3D
 Structure written by MMmdl.
 73 77  0  0  1  0            999 V2000
    6.4181    1.7892   23.4148 O   0  0  0  0  0  0
    5.8043    0.7398   23.2187 C   0  0  0  0  0  0
    6.2134   -0.4628   23.6543 N   0  0  0  0  0  0
    7.4475   -0.6983   24.4038 C   0  0  0  0  0  0
    7.3389   -1.7342   25.5485 C   0  0  0  0  0  0
    7.9322   -3.0983   25.2155 C   0  0  0  0  0  0
    8.8749   -3.6853   26.0671 C   0  0  0  0  0  0
    9.4271   -4.9277   25.7548 C   0  0  0  0  0  0
    9.0403   -5.5899   24.5899 C   0  0  0  0  0  0
    8.0997   -5.0104   23.7377 C   0  0  0  0  0  0
    7.7255   -5.6521   22.6078 F   0  0  0  0  0  0
    7.5461   -3.7679   24.0499 C   0  0  0  0  0  0
    4.5068    0.7558   22.3691 C   0  0  2  0  0  0
    4.8965    0.6685   20.9023 C   0  0  0  0  0  0
    5.8826   -0.2354   20.4873 C   0  0  0  0  0  0
    6.2413   -0.3033   19.1399 C   0  0  0  0  0  0
    5.6002    0.5455   18.2371 C   0  0  0  0  0  0
    4.6454    1.4344   18.6105 N   0  0  0  0  0  0
    4.3083    1.4851   19.9244 C   0  0  0  0  0  0
    3.5322    1.8701   22.6665 N   0  0  0  0  0  0
    2.5248    2.1405   21.7621 C   0  0  0  0  0  0
    1.7619    1.2687   21.3370 O   0  0  0  0  0  0
    2.3479    3.4824   21.2293 C   0  0  0  0  0  0
    2.3275    4.7565   21.8012 C   0  0  0  0  0  0
    1.9792    5.6583   20.7953 C   0  0  0  0  0  0
    1.7353    4.9009   19.6654 C   0  0  0  0  0  0
    1.9248    3.5849   19.9376 O   0  0  0  0  0  0
    3.5515    2.5021   23.9307 C   0  0  0  0  0  0
    2.7346    2.0257   24.9630 C   0  0  0  0  0  0
    2.7562    2.6495   26.2096 C   0  0  0  0  0  0
    3.5958    3.7411   26.4307 C   0  0  0  0  0  0
    4.4364    4.2062   25.4127 C   0  0  0  0  0  0
    5.3507    5.3987   25.6536 C   0  0  0  0  0  0
    6.7796    5.0185   26.7193 S   0  0  0  0  0  0
    8.1926    5.0550   25.5683 C   0  0  0  0  0  0
    7.6748    5.3059   24.1383 C   0  0  0  0  0  0
    8.8344    5.5309   23.1490 C   0  0  0  0  0  0
    9.6846    6.5808   23.6086 O   0  0  0  0  0  0
   10.2928    6.3189   24.8717 C   0  0  0  0  0  0
    9.2232    6.1316   25.9668 C   0  0  0  0  0  0
    4.4114    3.5827   24.1610 C   0  0  0  0  0  0
    5.6553   -1.2758   23.4369 H   0  0  0  0  0  0
    8.2475   -0.9776   23.7158 H   0  0  0  0  0  0
    7.7376    0.2635   24.8283 H   0  0  0  0  0  0
    7.8237   -1.3456   26.4453 H   0  0  0  0  0  0
    6.2924   -1.8601   25.8288 H   0  0  0  0  0  0
    9.1877   -3.1772   26.9681 H   0  0  0  0  0  0
   10.1562   -5.3742   26.4147 H   0  0  0  0  0  0
    9.4695   -6.5509   24.3477 H   0  0  0  0  0  0
    6.8210   -3.3248   23.3829 H   0  0  0  0  0  0
    3.9738   -0.1529   22.6571 H   0  0  0  0  0  0
    6.3691   -0.8812   21.2036 H   0  0  0  0  0  0
    6.9988   -0.9962   18.8048 H   0  0  0  0  0  0
    5.8508    0.5212   17.1867 H   0  0  0  0  0  0
    3.5488    2.2056   20.1910 H   0  0  0  0  0  0
    2.5363    5.0193   22.8262 H   0  0  0  0  0  0
    1.8896    6.7305   20.8884 H   0  0  0  0  0  0
    1.4212    5.1420   18.6605 H   0  0  0  0  0  0
    2.0803    1.1818   24.7976 H   0  0  0  0  0  0
    2.1196    2.2891   27.0040 H   0  0  0  0  0  0
    3.6001    4.2198   27.3992 H   0  0  0  0  0  0
    5.7166    5.8099   24.7117 H   0  0  0  0  0  0
    4.7690    6.1880   26.1306 H   0  0  0  0  0  0
    8.6562    4.0676   25.6065 H   0  0  0  0  0  0
    7.0595    4.4696   23.8042 H   0  0  0  0  0  0
    7.0320    6.1880   24.1265 H   0  0  0  0  0  0
    9.4127    4.6149   23.0132 H   0  0  0  0  0  0
    8.4432    5.8004   22.1679 H   0  0  0  0  0  0
   10.9275    5.4356   24.7906 H   0  0  0  0  0  0
   10.9485    7.1517   25.1264 H   0  0  0  0  0  0
    8.7168    7.0845   26.1278 H   0  0  0  0  0  0
    9.7068    5.8772   26.9092 H   0  0  0  0  0  0
    5.0523    3.9371   23.3663 H   0  0  0  0  0  0
  1  2  2  0  0  0
  2  3  1  0  0  0
  2 13  1  0  0  0
  3  4  1  0  0  0
  3 42  1  0  0  0
  4  5  1  0  0  0
  4 43  1  0  0  0
  4 44  1  0  0  0
  5  6  1  0  0  0
  5 45  1  0  0  0
  5 46  1  0  0  0
  6  7  2  0  0  0
  6 12  1  0  0  0
  7  8  1  0  0  0
  7 47  1  0  0  0
  8  9  2  0  0  0
  8 48  1  0  0  0
  9 10  1  0  0  0
  9 49  1  0  0  0
 10 11  1  0  0  0
 10 12  2  0  0  0
 12 50  1  0  0  0
 13 14  1  0  0  0
 13 20  1  0  0  0
 13 51  1  0  0  0
 14 15  2  0  0  0
 14 19  1  0  0  0
 15 16  1  0  0  0
 15 52  1  0  0  0
 16 17  2  0  0  0
 16 53  1  0  0  0
 17 18  1  0  0  0
 17 54  1  0  0  0
 18 19  2  0  0  0
 19 55  1  0  0  0
 20 21  1  0  0  0
 20 28  1  0  0  0
 21 22  2  0  0  0
 21 23  1  0  0  0
 23 24  2  0  0  0
 23 27  1  0  0  0
 24 25  1  0  0  0
 24 56  1  0  0  0
 25 26  2  0  0  0
 25 57  1  0  0  0
 26 27  1  0  0  0
 26 58  1  0  0  0
 28 29  2  0  0  0
 28 41  1  0  0  0
 29 30  1  0  0  0
 29 59  1  0  0  0
 30 31  2  0  0  0
 30 60  1  0  0  0
 31 32  1  0  0  0
 31 61  1  0  0  0
 32 33  1  0  0  0
 32 41  2  0  0  0
 33 34  1  0  0  0
 33 62  1  0  0  0
 33 63  1  0  0  0
 34 35  1  0  0  0
 35 36  1  0  0  0
 35 40  1  0  0  0
 35 64  1  0  0  0
 36 37  1  0  0  0
 36 65  1  0  0  0
 36 66  1  0  0  0
 37 38  1  0  0  0
 37 67  1  0  0  0
 37 68  1  0  0  0
 38 39  1  0  0  0
 39 40  1  0  0  0
 39 69  1  0  0  0
 39 70  1  0  0  0
 40 71  1  0  0  0
 40 72  1  0  0  0
 41 73  1  0  0  0
M  END
> <s_m_entry_id>
1936

> <s_m_entry_name>
Compounds-withfrags-for-validation-docking.1876

> <s_m_Source_Path>
/home/rodolpho/data/melina/maestro/glide-dock_XP_5RGK_M-PRO_VALIDATION

> <s_m_Source_File>
glide-dock_XP_5RGK_M-PRO_VALIDATION_pv.maegz

> <i_m_Source_File_Index>
1936

> <CID>
ALP-POS-b0bc6a46-13

> <Potency>
99.5

> <pIC50>
4.00218

> <Source>
Postera

> <smiles>
O=C(NCCc1cccc(F)c1)C(c1cccnc1)N(C(=O)c1ccco1)c1cccc(CSC2CCOCC2)c1

> <Outcome>
Inactive

> <StandardizerResult>
Clear Stereo (ID: ClearStereo)
Wedge Clean (ID: WedgeClean)
Mesomerize (ID: Mesomerize)
Tautomerize (ID: Tautomerize)
Aromatize (ID: Aromatize)
Add Explicit Hydrogens (ID: AddExplicitH)
Neutralize (ID: Neutralize)
Clean 2D (ID: Clean2D)

> <chiral flag>
0

> <version>
0

> <i_lp_mmshare_version>
41011

> <i_f3d_flags>
0

> <s_epik_input>
RmMoW2NIXTEpW2NIXVtjSF1bY0hdYzFbQ0gyXVtDSDJdW05IXUMoPU8pW0NASF0oYzJbY0hdW2NIXVtjSF1uW2NIXTIpTihDKD1PKWMzW2NIXVtjSF1bY0hdbzMpYzRbY0hdW2NIXVtjSF1jKFtjSF00KVtDSDJdU1tDSF01W0NIMl1bQ0gyXU9bQ0gyXVtDSDJdNQ==

> <s_epik_cmdline>
J2VwaWtfcHl0aG9uJywgJy1waHQnLCAnMC41JywgJy1waCcsICc3LjQnLCAnLXRuJywgJzgnLCAnLW1hJywgJzIwMCcsICctaW1hZScsICc8aW5maWxlLm1hZT4nLCAnLW9tYWUnLCAnPG91dGZpbGUubWFlPic=

> <r_lp_tautomer_probability>
1.0

> <r_epik_Ionization_Penalty>
6.0E-4

> <r_epik_Ionization_Penalty_Charging>
0.0

> <r_epik_Ionization_Penalty_Neutral>
6.0E-4

> <r_epik_State_Penalty>
0.0

> <r_epik_Charging_Adjusted_Penalty>
0.0

> <i_epik_Tot_Q>
0

> <i_epik_Tot_abs_Q>
0

> <s_lp_Force_Field>
OPLS3

> <r_lp_Energy>
65.0358

> <b_lp_Chiralities_Consistent>
1

> <s_lp_Variant>
ligprep_COVID_compounds-withfrags-smallmolecules-forvalidation.maegz:41-2

> <i_glide_original_lignum>
188

> <s_i_glide_gridfile>
glide-grid_5RGK_M-PRO_COVID

> <i_i_glide_lignum>
188

> <r_i_docking_score>
-3.97427605404143

> <r_i_glide_ligand_efficiency>
-0.0969335622936935

> <r_i_glide_ligand_efficiency_sa>
-0.334247980259076

> <r_i_glide_ligand_efficiency_ln>
-0.843155890649237

> <r_glide_XP_GScore>
-3.97427605404143

> <r_i_glide_gscore>
-3.97427605404143

> <r_i_glide_evdw>
-43.811222076416

> <r_i_glide_ecoul>
-5.52407789230347

> <r_i_glide_energy>
-49.3352999687195

> <r_i_glide_einternal>
6.18420600891113

> <r_i_glide_emodel>
-64.149807687275

> <r_glide_XP_HBond>
-0.982732158087716

> <i_i_glide_confnum>
3

> <i_i_glide_posenum>
31

> <r_i_glide_eff_state_penalty>
0.0

> <i_glide_XP_PoseRank>
1

> <MW>
573.21

> <cLogP>
5.97

> <TPSA>
84.67

> <Rotatable Bonds>
11

> <Fraction sp3>
0.28

> <HBA>
6

> <HBD>
1

> <s_epik_Chemistry_Notes>


> <Structure ID>


> <Submission Fragments>


$$$$
ligprep_COVID_compounds-withfrags-smallmolecules-forvalidation.maegz:45
                    3D
 Structure written by MMmdl.
 66 70  0  0  1  0            999 V2000
    9.7364   -5.2182   24.8534 C   0  0  0  0  0  0
    9.4193   -4.7982   26.2913 C   0  0  0  0  0  0
    9.1664   -3.3992   26.3212 O   0  0  0  0  0  0
    7.7857   -3.0575   26.3860 C   0  0  1  0  0  0
    7.5266   -1.5496   26.2603 C   0  0  0  0  0  0
    6.5889   -1.8468   25.0845 C   0  0  1  0  0  0
    7.0841   -3.2958   25.0431 C   0  0  0  0  0  0
    5.1605   -1.3768   24.9002 C   0  0  0  0  0  0
    6.2311   -0.9729   23.8966 C   0  0  1  0  0  0
    6.7595    0.4144   23.7392 N   0  0  0  0  0  0
    8.0240    0.7963   24.1022 C   0  0  0  0  0  0
    8.8666    0.0426   24.5895 O   0  0  0  0  0  0
    8.3684    2.1922   23.9530 C   0  0  0  0  0  0
    7.5930    3.2784   23.5595 C   0  0  0  0  0  0
    8.4468    4.3782   23.4631 C   0  0  0  0  0  0
    9.7165    3.9089   23.7496 C   0  0  0  0  0  0
    9.6734    2.5800   24.0251 O   0  0  0  0  0  0
    5.9741    1.2520   22.7789 C   0  0  2  0  0  0
    4.6317    1.7922   23.3475 C   0  0  0  0  0  0
    3.9740    1.1181   24.1421 O   0  0  0  0  0  0
    4.2851    3.0361   22.9717 N   0  0  0  0  0  0
    3.1373    3.7748   23.4971 C   0  0  0  0  0  0
    3.4953    5.0784   24.2466 C   0  0  0  0  0  0
    4.6148    4.9181   25.2681 C   0  0  0  0  0  0
    5.9401    4.7724   24.8438 C   0  0  0  0  0  0
    6.9674    4.6385   25.7782 C   0  0  0  0  0  0
    6.6742    4.6447   27.1420 C   0  0  0  0  0  0
    5.3543    4.7867   27.5714 C   0  0  0  0  0  0
    5.0707    4.7929   28.8935 F   0  0  0  0  0  0
    4.3269    4.9242   26.6369 C   0  0  0  0  0  0
    5.8927    0.5614   21.4272 C   0  0  0  0  0  0
    5.3209    1.2322   20.3384 C   0  0  0  0  0  0
    5.2521    0.6085   19.0914 C   0  0  0  0  0  0
    5.7568   -0.6859   18.9668 C   0  0  0  0  0  0
    6.3128   -1.3632   20.0020 N   0  0  0  0  0  0
    6.3730   -0.7392   21.2056 C   0  0  0  0  0  0
    9.9080   -6.2928   24.7910 H   0  0  0  0  0  0
   10.6323   -4.7178   24.4863 H   0  0  0  0  0  0
    8.9143   -4.9715   24.1808 H   0  0  0  0  0  0
    8.5471   -5.3469   26.6507 H   0  0  0  0  0  0
   10.2589   -5.0505   26.9412 H   0  0  0  0  0  0
    7.3450   -3.5678   27.2455 H   0  0  0  0  0  0
    7.0480   -1.0989   27.1300 H   0  0  0  0  0  0
    8.4030   -0.9607   25.9894 H   0  0  0  0  0  0
    7.7559   -3.5132   24.2123 H   0  0  0  0  0  0
    6.2973   -4.0501   25.0679 H   0  0  0  0  0  0
    4.4136   -2.1038   24.5814 H   0  0  0  0  0  0
    4.7432   -0.6584   25.6034 H   0  0  0  0  0  0
    6.1725   -1.4957   22.9422 H   0  0  0  0  0  0
    6.5296    3.2732   23.3686 H   0  0  0  0  0  0
    8.1752    5.3882   23.1942 H   0  0  0  0  0  0
   10.6910    4.3731   23.7810 H   0  0  0  0  0  0
    6.5115    2.1832   22.6023 H   0  0  0  0  0  0
    4.8616    3.5189   22.2972 H   0  0  0  0  0  0
    2.5049    4.0204   22.6432 H   0  0  0  0  0  0
    2.5385    3.1250   24.1384 H   0  0  0  0  0  0
    3.7778    5.8474   23.5262 H   0  0  0  0  0  0
    2.6099    5.4740   24.7471 H   0  0  0  0  0  0
    6.1741    4.7704   23.7893 H   0  0  0  0  0  0
    7.9893    4.5308   25.4460 H   0  0  0  0  0  0
    7.4695    4.5398   27.8652 H   0  0  0  0  0  0
    3.3082    5.0376   26.9782 H   0  0  0  0  0  0
    4.9394    2.2362   20.4548 H   0  0  0  0  0  0
    4.8188    1.1164   18.2426 H   0  0  0  0  0  0
    5.7204   -1.2019   18.0188 H   0  0  0  0  0  0
    6.8315   -1.3057   22.0029 H   0  0  0  0  0  0
  1  2  1  0  0  0
  1 37  1  0  0  0
  1 38  1  0  0  0
  1 39  1  0  0  0
  2  3  1  0  0  0
  2 40  1  0  0  0
  2 41  1  0  0  0
  3  4  1  0  0  0
  4  5  1  0  0  0
  4  7  1  0  0  0
  4 42  1  0  0  0
  5  6  1  0  0  0
  5 43  1  0  0  0
  5 44  1  0  0  0
  6  7  1  0  0  0
  6  8  1  0  0  0
  6  9  1  0  0  0
  7 45  1  0  0  0
  7 46  1  0  0  0
  8  9  1  0  0  0
  8 47  1  0  0  0
  8 48  1  0  0  0
  9 10  1  0  0  0
  9 49  1  0  0  0
 10 11  1  0  0  0
 10 18  1  0  0  0
 11 12  2  0  0  0
 11 13  1  0  0  0
 13 14  2  0  0  0
 13 17  1  0  0  0
 14 15  1  0  0  0
 14 50  1  0  0  0
 15 16  2  0  0  0
 15 51  1  0  0  0
 16 17  1  0  0  0
 16 52  1  0  0  0
 18 19  1  0  0  0
 18 31  1  0  0  0
 18 53  1  0  0  0
 19 20  2  0  0  0
 19 21  1  0  0  0
 21 22  1  0  0  0
 21 54  1  0  0  0
 22 23  1  0  0  0
 22 55  1  0  0  0
 22 56  1  0  0  0
 23 24  1  0  0  0
 23 57  1  0  0  0
 23 58  1  0  0  0
 24 25  2  0  0  0
 24 30  1  0  0  0
 25 26  1  0  0  0
 25 59  1  0  0  0
 26 27  2  0  0  0
 26 60  1  0  0  0
 27 28  1  0  0  0
 27 61  1  0  0  0
 28 29  1  0  0  0
 28 30  2  0  0  0
 30 62  1  0  0  0
 31 32  2  0  0  0
 31 36  1  0  0  0
 32 33  1  0  0  0
 32 63  1  0  0  0
 33 34  2  0  0  0
 33 64  1  0  0  0
 34 35  1  0  0  0
 34 65  1  0  0  0
 35 36  2  0  0  0
 36 66  1  0  0  0
M  END
> <s_m_entry_id>
1951

> <s_m_entry_name>
Compounds-withfrags-for-validation-docking.1872

> <s_m_Source_Path>
/home/rodolpho/data/melina/maestro/glide-dock_XP_5RGK_M-PRO_VALIDATION

> <s_m_Source_File>
glide-dock_XP_5RGK_M-PRO_VALIDATION_pv.maegz

> <i_m_Source_File_Index>
1951

> <CID>
ALP-POS-b0bc6a46-4

> <Potency>
99.5

> <pIC50>
4.00218

> <Source>
Postera

> <smiles>
CCOC1CC2(C1)CC2N(C(=O)c1ccco1)C(C(=O)NCCc1cccc(F)c1)c1cccnc1

> <Outcome>
Inactive

> <StandardizerResult>
Clear Stereo (ID: ClearStereo)
Wedge Clean (ID: WedgeClean)
Mesomerize (ID: Mesomerize)
Tautomerize (ID: Tautomerize)
Aromatize (ID: Aromatize)
Add Explicit Hydrogens (ID: AddExplicitH)
Neutralize (ID: Neutralize)
Clean 2D (ID: Clean2D)

> <chiral flag>
0

> <version>
0

> <i_lp_mmshare_version>
41011

> <i_f3d_flags>
0

> <s_epik_input>
W0NIM11bQ0gyXU9bQ0BIXShbQ0gyXTEpW0NIMl1bQ0BdMTJbQ0gyXVtDQEhdMk4oQyg9TyljM1tjSF1bY0hdW2NIXW8zKVtDQEBIXShjNFtjSF1bY0hdW2NIXW5bY0hdNClDKD1PKVtOSF1bQ0gyXVtDSDJdYzVbY0hdW2NIXVtjSF1jKEYpW2NIXTU=

> <s_epik_cmdline>
J2VwaWtfcHl0aG9uJywgJy1waHQnLCAnMC41JywgJy1waCcsICc3LjQnLCAnLXRuJywgJzgnLCAnLW1hJywgJzIwMCcsICctaW1hZScsICc8aW5maWxlLm1hZT4nLCAnLW9tYWUnLCAnPG91dGZpbGUubWFlPic=

> <r_lp_tautomer_probability>
1.0

> <r_epik_Ionization_Penalty>
8.0E-4

> <r_epik_Ionization_Penalty_Charging>
0.0

> <r_epik_Ionization_Penalty_Neutral>
8.0E-4

> <r_epik_State_Penalty>
0.0

> <r_epik_Charging_Adjusted_Penalty>
0.0

> <i_epik_Tot_Q>
0

> <i_epik_Tot_abs_Q>
0

> <s_lp_Force_Field>
OPLS3

> <r_lp_Energy>
65.9394

> <b_lp_Chiralities_Consistent>
1

> <s_lp_Variant>
ligprep_COVID_compounds-withfrags-smallmolecules-forvalidation.maegz:45-3

> <i_glide_original_lignum>
197

> <s_i_glide_gridfile>
glide-grid_5RGK_M-PRO_COVID

> <i_i_glide_lignum>
197

> <r_i_docking_score>
-3.96445842004391

> <r_i_glide_ligand_efficiency>
-0.11012384500122

> <r_i_glide_ligand_efficiency_sa>
-0.363620924128228

> <r_i_glide_ligand_efficiency_ln>
-0.864937719964845

> <r_glide_XP_GScore>
-3.96445842004391

> <r_i_glide_gscore>
-3.96445842004391

> <r_i_glide_evdw>
-29.1073989868164

> <r_i_glide_ecoul>
-14.3279209136963

> <r_i_glide_energy>
-43.4353199005127

> <r_i_glide_einternal>
0.0

> <r_i_glide_emodel>
-59.213812660379

> <r_glide_XP_HBond>
-0.35

> <i_i_glide_confnum>
1

> <i_i_glide_posenum>
8

> <r_i_glide_eff_state_penalty>
0.0

> <i_glide_XP_PoseRank>
1

> <MW>
491.22

> <cLogP>
4.31

> <TPSA>
84.67

> <Rotatable Bonds>
10

> <Fraction sp3>
0.39

> <HBA>
5

> <HBD>
1

> <s_epik_Chemistry_Notes>


> <Structure ID>


> <Submission Fragments>


$$$$
ligprep_COVID_compounds-withfrags-smallmolecules-forvalidation.maegz:43
                    3D
 Structure written by MMmdl.
 59 62  0  0  1  0            999 V2000
    3.6116   -6.6619   23.8003 C   0  0  0  0  0  0
    4.0935   -5.7684   24.7948 O   0  0  0  0  0  0
    3.5914   -5.8745   26.0763 C   0  0  0  0  0  0
    2.4934   -6.7046   26.4157 C   0  0  0  0  0  0
    2.0379   -6.7835   27.7455 C   0  0  0  0  0  0
    2.6715   -6.0366   28.7548 C   0  0  0  0  0  0
    3.7638   -5.2117   28.4333 C   0  0  0  0  0  0
    4.2235   -5.1233   27.0995 C   0  0  0  0  0  0
    5.3562   -4.3147   26.7878 N   0  0  0  0  0  0
    6.5701   -4.8395   27.0903 C   0  0  0  0  0  0
    6.8608   -5.2180   28.2260 O   0  0  0  0  0  0
    7.5515   -4.9751   25.9939 C   0  0  0  0  0  0
    7.3697   -5.0380   24.6377 C   0  0  0  0  0  0
    8.6464   -5.2762   24.0695 C   0  0  0  0  0  0
    9.5206   -5.3485   25.1160 C   0  0  0  0  0  0
    8.8689   -5.1676   26.2967 O   0  0  0  0  0  0
    5.0978   -3.0390   26.0551 C   0  0  2  0  0  0
    6.2792   -2.0953   25.7173 C   0  0  0  0  0  0
    7.1946   -1.9106   26.5215 O   0  0  0  0  0  0
    6.2124   -1.4623   24.5353 N   0  0  0  0  0  0
    7.1758   -0.4685   24.0644 C   0  0  0  0  0  0
    6.5427    0.5800   23.1225 C   0  0  0  0  0  0
    6.1912    0.1411   21.7023 C   0  0  0  0  0  0
    6.2929   -1.1991   21.2684 C   0  0  0  0  0  0
    5.9752   -1.5369   19.9388 C   0  0  0  0  0  0
    5.5749   -0.5525   19.0221 C   0  0  0  0  0  0
    5.4710    0.7816   19.4435 C   0  0  0  0  0  0
    5.0848    1.7292   18.5595 F   0  0  0  0  0  0
    5.7710    1.1240   20.7777 C   0  0  0  0  0  0
    4.2090   -2.1347   26.8593 C   0  0  0  0  0  0
    3.1673   -1.3993   26.2494 C   0  0  0  0  0  0
    2.3595   -0.5402   27.0146 C   0  0  0  0  0  0
    2.6224   -0.4317   28.3898 C   0  0  0  0  0  0
    3.6146   -1.1054   29.0000 N   0  0  0  0  0  0
    4.3810   -1.9224   28.2486 C   0  0  0  0  0  0
    4.1630   -6.4990   22.8742 H   0  0  0  0  0  0
    2.5557   -6.4915   23.5869 H   0  0  0  0  0  0
    3.7609   -7.7023   24.0926 H   0  0  0  0  0  0
    1.9864   -7.3010   25.6723 H   0  0  0  0  0  0
    1.2072   -7.4284   27.9925 H   0  0  0  0  0  0
    2.3303   -6.1051   29.7771 H   0  0  0  0  0  0
    4.2584   -4.6559   29.2176 H   0  0  0  0  0  0
    6.4314   -4.9441   24.1138 H   0  0  0  0  0  0
    8.8778   -5.4001   23.0229 H   0  0  0  0  0  0
   10.5835   -5.5275   25.1957 H   0  0  0  0  0  0
    4.6116   -3.3036   25.1172 H   0  0  0  0  0  0
    5.4379   -1.6797   23.9211 H   0  0  0  0  0  0
    7.5814    0.0646   24.9268 H   0  0  0  0  0  0
    8.0196   -0.9662   23.5870 H   0  0  0  0  0  0
    5.6486    0.9967   23.5863 H   0  0  0  0  0  0
    7.2418    1.4124   23.0265 H   0  0  0  0  0  0
    6.6103   -1.9858   21.9358 H   0  0  0  0  0  0
    6.0301   -2.5632   19.6163 H   0  0  0  0  0  0
    5.3296   -0.8246   18.0053 H   0  0  0  0  0  0
    5.6919    2.1583   21.0840 H   0  0  0  0  0  0
    2.9910   -1.4853   25.1881 H   0  0  0  0  0  0
    1.5610    0.0250   26.5573 H   0  0  0  0  0  0
    2.0266    0.2175   29.0138 H   0  0  0  0  0  0
    5.1749   -2.4274   28.7782 H   0  0  0  0  0  0
  1  2  1  0  0  0
  1 36  1  0  0  0
  1 37  1  0  0  0
  1 38  1  0  0  0
  2  3  1  0  0  0
  3  4  2  0  0  0
  3  8  1  0  0  0
  4  5  1  0  0  0
  4 39  1  0  0  0
  5  6  2  0  0  0
  5 40  1  0  0  0
  6  7  1  0  0  0
  6 41  1  0  0  0
  7  8  2  0  0  0
  7 42  1  0  0  0
  8  9  1  0  0  0
  9 10  1  0  0  0
  9 17  1  0  0  0
 10 11  2  0  0  0
 10 12  1  0  0  0
 12 13  2  0  0  0
 12 16  1  0  0  0
 13 14  1  0  0  0
 13 43  1  0  0  0
 14 15  2  0  0  0
 14 44  1  0  0  0
 15 16  1  0  0  0
 15 45  1  0  0  0
 17 18  1  0  0  0
 17 30  1  0  0  0
 17 46  1  0  0  0
 18 19  2  0  0  0
 18 20  1  0  0  0
 20 21  1  0  0  0
 20 47  1  0  0  0
 21 22  1  0  0  0
 21 48  1  0  0  0
 21 49  1  0  0  0
 22 23  1  0  0  0
 22 50  1  0  0  0
 22 51  1  0  0  0
 23 24  2  0  0  0
 23 29  1  0  0  0
 24 25  1  0  0  0
 24 52  1  0  0  0
 25 26  2  0  0  0
 25 53  1  0  0  0
 26 27  1  0  0  0
 26 54  1  0  0  0
 27 28  1  0  0  0
 27 29  2  0  0  0
 29 55  1  0  0  0
 30 31  2  0  0  0
 30 35  1  0  0  0
 31 32  1  0  0  0
 31 56  1  0  0  0
 32 33  2  0  0  0
 32 57  1  0  0  0
 33 34  1  0  0  0
 33 58  1  0  0  0
 34 35  2  0  0  0
 35 59  1  0  0  0
M  END
> <s_m_entry_id>
1952

> <s_m_entry_name>
Compounds-withfrags-for-validation-docking.1874

> <s_m_Source_Path>
/home/rodolpho/data/melina/maestro/glide-dock_XP_5RGK_M-PRO_VALIDATION

> <s_m_Source_File>
glide-dock_XP_5RGK_M-PRO_VALIDATION_pv.maegz

> <i_m_Source_File_Index>
1952

> <CID>
ALP-POS-b0bc6a46-8

> <Potency>
99.5

> <pIC50>
4.00218

> <Source>
Postera

> <smiles>
COc1ccccc1N(C(=O)c1ccco1)C(C(=O)NCCc1cccc(F)c1)c1cccnc1

> <Outcome>
Inactive

> <StandardizerResult>
Clear Stereo (ID: ClearStereo)
Wedge Clean (ID: WedgeClean)
Mesomerize (ID: Mesomerize)
Tautomerize (ID: Tautomerize)
Aromatize (ID: Aromatize)
Add Explicit Hydrogens (ID: AddExplicitH)
Neutralize (ID: Neutralize)
Clean 2D (ID: Clean2D)

> <chiral flag>
0

> <version>
0

> <i_lp_mmshare_version>
41011

> <i_f3d_flags>
0

> <s_epik_input>
W0NIM11PYzFbY0hdW2NIXVtjSF1bY0hdYzFOKEMoPU8pYzJbY0hdW2NIXVtjSF1vMilbQ0BASF0oYzNbY0hdW2NIXVtjSF1uW2NIXTMpQyg9TylbTkhdW0NIMl1bQ0gyXWM0W2NIXVtjSF1bY0hdYyhGKVtjSF00

> <s_epik_cmdline>
J2VwaWtfcHl0aG9uJywgJy1waHQnLCAnMC41JywgJy1waCcsICc3LjQnLCAnLXRuJywgJzgnLCAnLW1hJywgJzIwMCcsICctaW1hZScsICc8aW5maWxlLm1hZT4nLCAnLW9tYWUnLCAnPG91dGZpbGUubWFlPic=

> <r_lp_tautomer_probability>
1.0

> <r_epik_Ionization_Penalty>
5.0E-4

> <r_epik_Ionization_Penalty_Charging>
0.0

> <r_epik_Ionization_Penalty_Neutral>
5.0E-4

> <r_epik_State_Penalty>
0.0

> <r_epik_Charging_Adjusted_Penalty>
0.0

> <i_epik_Tot_Q>
0

> <i_epik_Tot_abs_Q>
0

> <s_lp_Force_Field>
OPLS3

> <r_lp_Energy>
71.713

> <b_lp_Chiralities_Consistent>
1

> <s_lp_Variant>
ligprep_COVID_compounds-withfrags-smallmolecules-forvalidation.maegz:43-2

> <i_glide_original_lignum>
192

> <s_i_glide_gridfile>
glide-grid_5RGK_M-PRO_COVID

> <i_i_glide_lignum>
192

> <r_i_docking_score>
-3.96260070143485

> <r_i_glide_ligand_efficiency>
-0.113217162898139

> <r_i_glide_ligand_efficiency_sa>
-0.370340846852338

> <r_i_glide_ligand_efficiency_ln>
-0.869878799149157

> <r_glide_XP_GScore>
-3.96260070143485

> <r_i_glide_gscore>
-3.96260070143485

> <r_i_glide_evdw>
-39.4804153442383

> <r_i_glide_ecoul>
-3.69114136695862

> <r_i_glide_energy>
-43.1715567111969

> <r_i_glide_einternal>
6.37001991271973

> <r_i_glide_emodel>
-51.8097703959995

> <r_glide_XP_HBond>
-0.973174035391288

> <i_i_glide_confnum>
1

> <i_i_glide_posenum>
56

> <r_i_glide_eff_state_penalty>
0.0

> <i_glide_XP_PoseRank>
1

> <MW>
473.18

> <cLogP>
4.57

> <TPSA>
84.67

> <Rotatable Bonds>
9

> <Fraction sp3>
0.15

> <HBA>
5

> <HBD>
1

> <s_epik_Chemistry_Notes>


> <Structure ID>


> <Submission Fragments>


$$$$
ligprep_COVID_compounds-withfrags-smallmolecules-forvalidation.maegz:34
                    3D
 Structure written by MMmdl.
 65 69  0  0  1  0            999 V2000
    7.0676    0.6249   23.3415 O   0  0  0  0  0  0
    6.7708    1.6974   22.8113 C   0  0  0  0  0  0
    7.2947    2.8776   23.1865 N   0  0  0  0  0  0
    8.2982    3.0417   24.2339 C   0  0  0  0  0  0
    9.2192    1.8154   24.3875 C   0  0  0  0  0  0
   10.6067    2.0539   23.8124 C   0  0  0  0  0  0
   11.4824    0.9804   23.6180 C   0  0  0  0  0  0
   12.7575    1.1999   23.0955 C   0  0  0  0  0  0
   13.1635    2.4932   22.7658 C   0  0  0  0  0  0
   12.2949    3.5675   22.9594 C   0  0  0  0  0  0
   12.6886    4.8214   22.6413 F   0  0  0  0  0  0
   11.0195    3.3489   23.4816 C   0  0  0  0  0  0
    5.6953    1.7511   21.6869 C   0  0  1  0  0  0
    5.7362    0.6391   20.6442 C   0  0  0  0  0  0
    5.9140   -0.7192   20.9607 C   0  0  0  0  0  0
    5.9414   -1.6763   19.9456 C   0  0  0  0  0  0
    5.7878   -1.2507   18.6265 C   0  0  0  0  0  0
    5.6100    0.0510   18.2886 N   0  0  0  0  0  0
    5.5853    0.9667   19.2903 C   0  0  0  0  0  0
    4.2947    1.9858   22.1689 N   0  0  0  0  0  0
    3.9174    1.6284   23.4434 C   0  0  0  0  0  0
    4.1450    0.5173   23.9272 O   0  0  0  0  0  0
    3.1926    2.5803   24.2550 C   0  0  0  0  0  0
    2.3155    3.6163   23.9335 C   0  0  0  0  0  0
    1.8135    4.1156   25.1357 C   0  0  0  0  0  0
    2.3453    3.3220   26.1365 C   0  0  0  0  0  0
    3.1510    2.3699   25.5998 O   0  0  0  0  0  0
    3.3785    2.6990   21.2334 C   0  0  1  0  0  0
    3.2395    2.1204   19.8122 C   0  0  0  0  0  0
    1.7772    2.6248   19.7983 C   0  0  2  0  0  0
    1.3892    3.9789   19.2020 C   0  0  0  0  0  0
    1.9963    4.4014   18.0142 C   0  0  0  0  0  0
    1.6412    5.6178   17.4307 C   0  0  0  0  0  0
    2.2359    6.0161   16.2838 F   0  0  0  0  0  0
    0.6718    6.4214   18.0290 C   0  0  0  0  0  0
    0.0576    6.0077   19.2102 C   0  0  0  0  0  0
   -0.8840    6.7856   19.7904 F   0  0  0  0  0  0
    0.4126    4.7910   19.7939 C   0  0  0  0  0  0
    1.8589    2.4537   21.3312 C   0  0  0  0  0  0
    7.0147    3.7136   22.6938 H   0  0  0  0  0  0
    8.8983    3.9158   23.9773 H   0  0  0  0  0  0
    7.8167    3.2790   25.1852 H   0  0  0  0  0  0
    9.3149    1.5413   25.4397 H   0  0  0  0  0  0
    8.7733    0.9471   23.8987 H   0  0  0  0  0  0
   11.1770   -0.0243   23.8726 H   0  0  0  0  0  0
   13.4303    0.3682   22.9471 H   0  0  0  0  0  0
   14.1506    2.6625   22.3615 H   0  0  0  0  0  0
   10.3538    4.1868   23.6301 H   0  0  0  0  0  0
    6.0014    2.6362   21.1333 H   0  0  0  0  0  0
    6.0205   -1.0402   21.9866 H   0  0  0  0  0  0
    6.0756   -2.7225   20.1772 H   0  0  0  0  0  0
    5.8039   -1.9618   17.8138 H   0  0  0  0  0  0
    5.4400    1.9932   18.9860 H   0  0  0  0  0  0
    2.0655    3.9743   22.9462 H   0  0  0  0  0  0
    1.1236    4.9374   25.2587 H   0  0  0  0  0  0
    2.2336    3.3041   27.2107 H   0  0  0  0  0  0
    3.6498    3.7535   21.2914 H   0  0  0  0  0  0
    3.9066    2.5393   19.0614 H   0  0  0  0  0  0
    3.3305    1.0318   19.7644 H   0  0  0  0  0  0
    1.1406    1.8444   19.3781 H   0  0  0  0  0  0
    2.7473    3.7867   17.5394 H   0  0  0  0  0  0
    0.3962    7.3631   17.5775 H   0  0  0  0  0  0
   -0.0765    4.4976   20.7095 H   0  0  0  0  0  0
    1.5669    1.4538   21.6621 H   0  0  0  0  0  0
    1.3105    3.1860   21.9245 H   0  0  0  0  0  0
  1  2  2  0  0  0
  2  3  1  0  0  0
  2 13  1  0  0  0
  3  4  1  0  0  0
  3 40  1  0  0  0
  4  5  1  0  0  0
  4 41  1  0  0  0
  4 42  1  0  0  0
  5  6  1  0  0  0
  5 43  1  0  0  0
  5 44  1  0  0  0
  6  7  2  0  0  0
  6 12  1  0  0  0
  7  8  1  0  0  0
  7 45  1  0  0  0
  8  9  2  0  0  0
  8 46  1  0  0  0
  9 10  1  0  0  0
  9 47  1  0  0  0
 10 11  1  0  0  0
 10 12  2  0  0  0
 12 48  1  0  0  0
 13 14  1  0  0  0
 13 20  1  0  0  0
 13 49  1  0  0  0
 14 15  2  0  0  0
 14 19  1  0  0  0
 15 16  1  0  0  0
 15 50  1  0  0  0
 16 17  2  0  0  0
 16 51  1  0  0  0
 17 18  1  0  0  0
 17 52  1  0  0  0
 18 19  2  0  0  0
 19 53  1  0  0  0
 20 21  1  0  0  0
 20 28  1  0  0  0
 21 22  2  0  0  0
 21 23  1  0  0  0
 23 24  2  0  0  0
 23 27  1  0  0  0
 24 25  1  0  0  0
 24 54  1  0  0  0
 25 26  2  0  0  0
 25 55  1  0  0  0
 26 27  1  0  0  0
 26 56  1  0  0  0
 28 29  1  0  0  0
 28 39  1  0  0  0
 28 57  1  0  0  0
 29 30  1  0  0  0
 29 58  1  0  0  0
 29 59  1  0  0  0
 30 31  1  0  0  0
 30 39  1  0  0  0
 30 60  1  0  0  0
 31 32  2  0  0  0
 31 38  1  0  0  0
 32 33  1  0  0  0
 32 61  1  0  0  0
 33 34  1  0  0  0
 33 35  2  0  0  0
 35 36  1  0  0  0
 35 62  1  0  0  0
 36 37  1  0  0  0
 36 38  2  0  0  0
 38 63  1  0  0  0
 39 64  1  0  0  0
 39 65  1  0  0  0
M  END
> <s_m_entry_id>
1976

> <s_m_entry_name>
Compounds-withfrags-for-validation-docking.1883

> <s_m_Source_Path>
/home/rodolpho/data/melina/maestro/glide-dock_XP_5RGK_M-PRO_VALIDATION

> <s_m_Source_File>
glide-dock_XP_5RGK_M-PRO_VALIDATION_pv.maegz

> <i_m_Source_File_Index>
1976

> <CID>
ALP-POS-b0bc6a46-21

> <Potency>
99.5

> <pIC50>
4.00218

> <Source>
Postera

> <smiles>
O=C(NCCc1cccc(F)c1)C(c1cccnc1)N(C(=O)c1ccco1)[C@H]1C[C@H](c2cc(F)cc(F)c2)C1

> <Outcome>
Inactive

> <StandardizerResult>
Clear Stereo (ID: ClearStereo)
Wedge Clean (ID: WedgeClean)
Mesomerize (ID: Mesomerize)
Tautomerize (ID: Tautomerize)
Aromatize (ID: Aromatize)
Add Explicit Hydrogens (ID: AddExplicitH)
Neutralize (ID: Neutralize)
Clean 2D (ID: Clean2D)

> <chiral flag>
0

> <version>
0

> <i_lp_mmshare_version>
41011

> <i_f3d_flags>
0

> <s_epik_input>
RmMoW2NIXTEpW2NIXVtjSF1bY0hdYzFbQ0gyXVtDSDJdW05IXUMoPU8pW0NAQEhdKGMyW2NIXVtjSF1bY0hdbltjSF0yKU4oQyg9TyljM1tjSF1bY0hdW2NIXW8zKVtDQEhdNFtDSDJdW0NAQEhdKFtDSDJdNCljNVtjSF1jKEYpW2NIXWMoRilbY0hdNQ==

> <s_epik_cmdline>
J2VwaWtfcHl0aG9uJywgJy1waHQnLCAnMC41JywgJy1waCcsICc3LjQnLCAnLXRuJywgJzgnLCAnLW1hJywgJzIwMCcsICctaW1hZScsICc8aW5maWxlLm1hZT4nLCAnLW9tYWUnLCAnPG91dGZpbGUubWFlPic=

> <r_lp_tautomer_probability>
1.0

> <r_epik_Ionization_Penalty>
8.0E-4

> <r_epik_Ionization_Penalty_Charging>
0.0

> <r_epik_Ionization_Penalty_Neutral>
8.0E-4

> <r_epik_State_Penalty>
0.0

> <r_epik_Charging_Adjusted_Penalty>
0.0

> <i_epik_Tot_Q>
0

> <i_epik_Tot_abs_Q>
0

> <s_lp_Force_Field>
OPLS3

> <r_lp_Energy>
65.4033

> <b_lp_Chiralities_Consistent>
1

> <s_lp_Variant>
ligprep_COVID_compounds-withfrags-smallmolecules-forvalidation.maegz:34-3

> <i_glide_original_lignum>
171

> <s_i_glide_gridfile>
glide-grid_5RGK_M-PRO_COVID

> <i_i_glide_lignum>
171

> <r_i_docking_score>
-3.9454513395185

> <r_i_glide_ligand_efficiency>
-0.101165418962013

> <r_i_glide_ligand_efficiency_sa>
-0.343073326002344

> <r_i_glide_ligand_efficiency_ln>
-0.846016765489288

> <r_glide_XP_GScore>
-3.9454513395185

> <r_i_glide_gscore>
-3.9454513395185

> <r_i_glide_evdw>
-29.4496383666992

> <r_i_glide_ecoul>
-8.90372657775879

> <r_i_glide_energy>
-38.353364944458

> <r_i_glide_einternal>
9.37818431854248

> <r_i_glide_emodel>
-56.4106760694481

> <r_glide_XP_HBond>
-0.496608866796941

> <i_i_glide_confnum>
1

> <i_i_glide_posenum>
3

> <r_i_glide_eff_state_penalty>
0.0

> <i_glide_XP_PoseRank>
1

> <MW>
533.19

> <cLogP>
5.58

> <TPSA>
75.44

> <Rotatable Bonds>
9

> <Fraction sp3>
0.23

> <HBA>
4

> <HBD>
1

> <s_epik_Chemistry_Notes>


> <Structure ID>


> <Submission Fragments>


$$$$
ligprep_COVID_compounds-withfrags-smallmolecules-forvalidation.maegz:34
                    3D
 Structure written by MMmdl.
 65 69  0  0  1  0            999 V2000
    7.8933    1.0155   24.1997 O   0  0  0  0  0  0
    7.1673    1.3127   23.2606 C   0  0  0  0  0  0
    7.1715    2.5541   22.7395 N   0  0  0  0  0  0
    7.9371    3.7561   23.1157 C   0  0  0  0  0  0
    9.0260    3.6740   24.2224 C   0  0  0  0  0  0
   10.3729    3.1199   23.7698 C   0  0  0  0  0  0
   10.8125    1.8395   24.1716 C   0  0  0  0  0  0
   12.0577    1.3466   23.7406 C   0  0  0  0  0  0
   12.8884    2.1409   22.9295 C   0  0  0  0  0  0
   12.4766    3.4333   22.5554 C   0  0  0  0  0  0
   13.2842    4.2085   21.7928 F   0  0  0  0  0  0
   11.2223    3.9166   22.9733 C   0  0  0  0  0  0
    6.2312    0.1899   22.7231 C   0  0  2  0  0  0
    5.9891    0.3021   21.2227 C   0  0  0  0  0  0
    5.4284    1.4121   20.5380 C   0  0  0  0  0  0
    5.2010    1.3749   19.1511 C   0  0  0  0  0  0
    5.5746    0.2201   18.4487 C   0  0  0  0  0  0
    6.1405   -0.8404   19.0503 N   0  0  0  0  0  0
    6.3326   -0.7903   20.3860 C   0  0  0  0  0  0
    5.0176   -0.0033   23.5873 N   0  0  0  0  0  0
    4.9511   -0.9635   24.5710 C   0  0  0  0  0  0
    3.9738   -1.0775   25.3118 O   0  0  0  0  0  0
    6.0582   -1.9228   24.8730 C   0  0  0  0  0  0
    5.9735   -3.2172   25.3197 C   0  0  0  0  0  0
    7.3000   -3.6730   25.5526 C   0  0  0  0  0  0
    8.1086   -2.6124   25.2694 C   0  0  0  0  0  0
    7.3680   -1.5407   24.8822 O   0  0  0  0  0  0
    3.8962    0.9362   23.2287 C   0  0  1  0  0  0
    2.4777    0.8100   23.8461 C   0  0  0  0  0  0
    2.8037    1.9244   24.8414 C   0  0  2  0  0  0
    1.7482    2.9500   25.2219 C   0  0  0  0  0  0
    1.1136    3.7270   24.2282 C   0  0  0  0  0  0
    0.1346    4.6743   24.5857 C   0  0  0  0  0  0
   -0.4719    5.4152   23.6288 F   0  0  0  0  0  0
   -0.2154    4.8508   25.9374 C   0  0  0  0  0  0
    0.4140    4.0791   26.9326 C   0  0  0  0  0  0
    0.0767    4.2479   28.2329 F   0  0  0  0  0  0
    1.3924    3.1302   26.5762 C   0  0  0  0  0  0
    3.9801    2.3120   23.9263 C   0  0  0  0  0  0
    6.5178    2.7424   21.9889 H   0  0  0  0  0  0
    8.3622    4.1844   22.2074 H   0  0  0  0  0  0
    7.1838    4.4738   23.4422 H   0  0  0  0  0  0
    9.2197    4.6909   24.5658 H   0  0  0  0  0  0
    8.6669    3.1564   25.1116 H   0  0  0  0  0  0
   10.2050    1.2266   24.8193 H   0  0  0  0  0  0
   12.3778    0.3615   24.0429 H   0  0  0  0  0  0
   13.8499    1.7687   22.6056 H   0  0  0  0  0  0
   10.9103    4.9059   22.6701 H   0  0  0  0  0  0
    6.8479   -0.6999   22.8014 H   0  0  0  0  0  0
    5.1209    2.2854   21.0855 H   0  0  0  0  0  0
    4.7558    2.2210   18.6454 H   0  0  0  0  0  0
    5.4205    0.1476   17.3819 H   0  0  0  0  0  0
    6.7702   -1.6827   20.8091 H   0  0  0  0  0  0
    5.0557   -3.7706   25.4554 H   0  0  0  0  0  0
    7.6194   -4.6466   25.8962 H   0  0  0  0  0  0
    9.1754   -2.4503   25.3016 H   0  0  0  0  0  0
    3.6921    0.9946   22.1681 H   0  0  0  0  0  0
    1.7270    1.1424   23.1271 H   0  0  0  0  0  0
    2.1377   -0.1337   24.2648 H   0  0  0  0  0  0
    3.1764    1.4622   25.7555 H   0  0  0  0  0  0
    1.3730    3.6020   23.1873 H   0  0  0  0  0  0
   -0.9648    5.5783   26.2103 H   0  0  0  0  0  0
    1.8674    2.5448   27.3498 H   0  0  0  0  0  0
    4.9002    2.5523   24.4574 H   0  0  0  0  0  0
    3.7345    3.1154   23.2296 H   0  0  0  0  0  0
  1  2  2  0  0  0
  2  3  1  0  0  0
  2 13  1  0  0  0
  3  4  1  0  0  0
  3 40  1  0  0  0
  4  5  1  0  0  0
  4 41  1  0  0  0
  4 42  1  0  0  0
  5  6  1  0  0  0
  5 43  1  0  0  0
  5 44  1  0  0  0
  6  7  2  0  0  0
  6 12  1  0  0  0
  7  8  1  0  0  0
  7 45  1  0  0  0
  8  9  2  0  0  0
  8 46  1  0  0  0
  9 10  1  0  0  0
  9 47  1  0  0  0
 10 11  1  0  0  0
 10 12  2  0  0  0
 12 48  1  0  0  0
 13 14  1  0  0  0
 13 20  1  0  0  0
 13 49  1  0  0  0
 14 15  2  0  0  0
 14 19  1  0  0  0
 15 16  1  0  0  0
 15 50  1  0  0  0
 16 17  2  0  0  0
 16 51  1  0  0  0
 17 18  1  0  0  0
 17 52  1  0  0  0
 18 19  2  0  0  0
 19 53  1  0  0  0
 20 21  1  0  0  0
 20 28  1  0  0  0
 21 22  2  0  0  0
 21 23  1  0  0  0
 23 24  2  0  0  0
 23 27  1  0  0  0
 24 25  1  0  0  0
 24 54  1  0  0  0
 25 26  2  0  0  0
 25 55  1  0  0  0
 26 27  1  0  0  0
 26 56  1  0  0  0
 28 29  1  0  0  0
 28 39  1  0  0  0
 28 57  1  0  0  0
 29 30  1  0  0  0
 29 58  1  0  0  0
 29 59  1  0  0  0
 30 31  1  0  0  0
 30 39  1  0  0  0
 30 60  1  0  0  0
 31 32  2  0  0  0
 31 38  1  0  0  0
 32 33  1  0  0  0
 32 61  1  0  0  0
 33 34  1  0  0  0
 33 35  2  0  0  0
 35 36  1  0  0  0
 35 62  1  0  0  0
 36 37  1  0  0  0
 36 38  2  0  0  0
 38 63  1  0  0  0
 39 64  1  0  0  0
 39 65  1  0  0  0
M  END
> <s_m_entry_id>
1989

> <s_m_entry_name>
Compounds-withfrags-for-validation-docking.1883

> <s_m_Source_Path>
/home/rodolpho/data/melina/maestro/glide-dock_XP_5RGK_M-PRO_VALIDATION

> <s_m_Source_File>
glide-dock_XP_5RGK_M-PRO_VALIDATION_pv.maegz

> <i_m_Source_File_Index>
1989

> <CID>
ALP-POS-b0bc6a46-21

> <Potency>
99.5

> <pIC50>
4.00218

> <Source>
Postera

> <smiles>
O=C(NCCc1cccc(F)c1)C(c1cccnc1)N(C(=O)c1ccco1)[C@H]1C[C@H](c2cc(F)cc(F)c2)C1

> <Outcome>
Inactive

> <StandardizerResult>
Clear Stereo (ID: ClearStereo)
Wedge Clean (ID: WedgeClean)
Mesomerize (ID: Mesomerize)
Tautomerize (ID: Tautomerize)
Aromatize (ID: Aromatize)
Add Explicit Hydrogens (ID: AddExplicitH)
Neutralize (ID: Neutralize)
Clean 2D (ID: Clean2D)

> <chiral flag>
0

> <version>
0

> <i_lp_mmshare_version>
41011

> <i_f3d_flags>
0

> <s_epik_input>
RmMoW2NIXTEpW2NIXVtjSF1bY0hdYzFbQ0gyXVtDSDJdW05IXUMoPU8pW0NASF0oYzJbY0hdW2NIXVtjSF1uW2NIXTIpTihDKD1PKWMzW2NIXVtjSF1bY0hdbzMpW0NASF00W0NIMl1bQ0BASF0oW0NIMl00KWM1W2NIXWMoRilbY0hdYyhGKVtjSF01

> <s_epik_cmdline>
J2VwaWtfcHl0aG9uJywgJy1waHQnLCAnMC41JywgJy1waCcsICc3LjQnLCAnLXRuJywgJzgnLCAnLW1hJywgJzIwMCcsICctaW1hZScsICc8aW5maWxlLm1hZT4nLCAnLW9tYWUnLCAnPG91dGZpbGUubWFlPic=

> <r_lp_tautomer_probability>
1.0

> <r_epik_Ionization_Penalty>
8.0E-4

> <r_epik_Ionization_Penalty_Charging>
0.0

> <r_epik_Ionization_Penalty_Neutral>
8.0E-4

> <r_epik_State_Penalty>
0.0

> <r_epik_Charging_Adjusted_Penalty>
0.0

> <i_epik_Tot_Q>
0

> <i_epik_Tot_abs_Q>
0

> <s_lp_Force_Field>
OPLS3

> <r_lp_Energy>
70.4015

> <b_lp_Chiralities_Consistent>
1

> <s_lp_Variant>
ligprep_COVID_compounds-withfrags-smallmolecules-forvalidation.maegz:34-4

> <i_glide_original_lignum>
172

> <s_i_glide_gridfile>
glide-grid_5RGK_M-PRO_COVID

> <i_i_glide_lignum>
172

> <r_i_docking_score>
-3.94147725545437

> <r_i_glide_ligand_efficiency>
-0.101063519370625

> <r_i_glide_ligand_efficiency_sa>
-0.342727762942412

> <r_i_glide_ligand_efficiency_ln>
-0.845164609054853

> <r_glide_XP_GScore>
-3.94147725545437

> <r_i_glide_gscore>
-3.94147725545437

> <r_i_glide_evdw>
-32.1876029968262

> <r_i_glide_ecoul>
-6.47650623321533

> <r_i_glide_energy>
-38.6641092300415

> <r_i_glide_einternal>
13.323709487915

> <r_i_glide_emodel>
-47.160032116229

> <r_glide_XP_HBond>
-1.00793229596811

> <i_i_glide_confnum>
2

> <i_i_glide_posenum>
1

> <r_i_glide_eff_state_penalty>
0.0

> <i_glide_XP_PoseRank>
1

> <MW>
533.19

> <cLogP>
5.58

> <TPSA>
75.44

> <Rotatable Bonds>
9

> <Fraction sp3>
0.23

> <HBA>
4

> <HBD>
1

> <s_epik_Chemistry_Notes>


> <Structure ID>


> <Submission Fragments>


$$$$
ligprep_COVID_compounds-withfrags-smallmolecules-forvalidation.maegz:72
                    3D
 Structure written by MMmdl.
 43 45  0  0  1  0            999 V2000
    9.5821   -5.3491   25.1312 C   0  0  0  0  0  0
    8.6510   -4.6366   24.2117 C   0  0  0  0  0  0
    7.9312   -5.2994   23.3141 N   0  0  0  0  0  0
    7.1753   -4.2919   22.6976 O   0  0  0  0  0  0
    7.5362   -3.1315   23.3007 C   0  0  0  0  0  0
    6.8518   -1.8560   22.9197 C   0  0  0  0  0  0
    6.5867   -1.8969   21.5210 O   0  0  0  0  0  0
    5.9752   -0.7975   20.9610 C   0  0  0  0  0  0
    6.2681   -0.5118   19.6114 C   0  0  0  0  0  0
    5.6831    0.6011   18.9808 C   0  0  0  0  0  0
    6.0978    1.0364   17.3708 Cl  0  0  0  0  0  0
    4.7661    1.4000   19.6713 C   0  0  0  0  0  0
    4.4462    1.1264   21.0145 C   0  0  0  0  0  0
    3.4861    2.0305   21.7748 C   0  0  0  0  0  0
    2.1655    2.2592   21.0297 C   0  0  0  0  0  0
    1.2538    1.4363   21.1316 O   0  0  0  0  0  0
    2.0947    3.3649   20.2655 N   0  0  0  0  0  0
    0.9343    3.9049   19.6436 C   0  0  0  0  0  0
   -0.3491    3.7963   20.2322 C   0  0  0  0  0  0
   -1.4626    4.3451   19.7035 N   0  0  0  0  0  0
   -1.3403    5.0364   18.5537 C   0  0  0  0  0  0
   -0.1143    5.2118   17.8859 C   0  0  0  0  0  0
    1.0478    4.6360   18.4375 C   0  0  0  0  0  0
    2.3750    4.7951   17.7214 C   0  0  0  0  0  0
    5.0687    0.0383   21.6617 C   0  0  0  0  0  0
    8.4709   -3.2860   24.2387 N   0  0  0  0  0  0
    9.9755   -4.6688   25.8867 H   0  0  0  0  0  0
   10.4172   -5.7638   24.5710 H   0  0  0  0  0  0
    9.0669   -6.1659   25.6373 H   0  0  0  0  0  0
    5.9534   -1.7644   23.5237 H   0  0  0  0  0  0
    7.5026   -1.0120   23.1543 H   0  0  0  0  0  0
    6.9654   -1.1348   19.0707 H   0  0  0  0  0  0
    4.3255    2.2364   19.1548 H   0  0  0  0  0  0
    3.2642    1.6036   22.7536 H   0  0  0  0  0  0
    3.9749    2.9883   21.9593 H   0  0  0  0  0  0
    2.9720    3.8525   20.0886 H   0  0  0  0  0  0
   -0.4982    3.2835   21.1699 H   0  0  0  0  0  0
   -2.2459    5.4643   18.1513 H   0  0  0  0  0  0
   -0.0724    5.7744   16.9658 H   0  0  0  0  0  0
    2.2247    5.0289   16.6668 H   0  0  0  0  0  0
    2.9594    3.8745   17.7708 H   0  0  0  0  0  0
    2.9529    5.6033   18.1707 H   0  0  0  0  0  0
    4.8176   -0.1582   22.6921 H   0  0  0  0  0  0
  1  2  1  0  0  0
  1 27  1  0  0  0
  1 28  1  0  0  0
  1 29  1  0  0  0
  2  3  2  0  0  0
  2 26  1  0  0  0
  3  4  1  0  0  0
  4  5  1  0  0  0
  5  6  1  0  0  0
  5 26  2  0  0  0
  6  7  1  0  0  0
  6 30  1  0  0  0
  6 31  1  0  0  0
  7  8  1  0  0  0
  8  9  2  0  0  0
  8 25  1  0  0  0
  9 10  1  0  0  0
  9 32  1  0  0  0
 10 11  1  0  0  0
 10 12  2  0  0  0
 12 13  1  0  0  0
 12 33  1  0  0  0
 13 14  1  0  0  0
 13 25  2  0  0  0
 14 15  1  0  0  0
 14 34  1  0  0  0
 14 35  1  0  0  0
 15 16  2  0  0  0
 15 17  1  0  0  0
 17 18  1  0  0  0
 17 36  1  0  0  0
 18 19  2  0  0  0
 18 23  1  0  0  0
 19 20  1  0  0  0
 19 37  1  0  0  0
 20 21  2  0  0  0
 21 22  1  0  0  0
 21 38  1  0  0  0
 22 23  2  0  0  0
 22 39  1  0  0  0
 23 24  1  0  0  0
 24 40  1  0  0  0
 24 41  1  0  0  0
 24 42  1  0  0  0
 25 43  1  0  0  0
M  END
> <s_m_entry_id>
2007

> <s_m_entry_name>
Compounds-withfrags-for-validation-docking.1845

> <s_m_Source_Path>
/home/rodolpho/data/melina/maestro/glide-dock_XP_5RGK_M-PRO_VALIDATION

> <s_m_Source_File>
glide-dock_XP_5RGK_M-PRO_VALIDATION_pv.maegz

> <i_m_Source_File_Index>
2007

> <CID>
CHO-MSK-6e55470f-5

> <Potency>
23.9245

> <pIC50>
4.62116

> <Source>
Postera

> <smiles>
Cc1noc(COc2cc(Cl)cc(CC(=O)Nc3cnccc3C)c2)n1

> <Outcome>
Inactive

> <StandardizerResult>
Clear Stereo (ID: ClearStereo)
Wedge Clean (ID: WedgeClean)
Mesomerize (ID: Mesomerize)
Tautomerize (ID: Tautomerize)
Aromatize (ID: Aromatize)
Add Explicit Hydrogens (ID: AddExplicitH)
Neutralize (ID: Neutralize)
Clean 2D (ID: Clean2D)

> <chiral flag>
0

> <version>
0

> <i_lp_mmshare_version>
41011

> <i_f3d_flags>
0

> <s_epik_input>
W0NIM11jMW5vYyhuMSlbQ0gyXU9jMltjSF1jKENsKVtjSF1jKFtjSF0yKVtDSDJdQyg9TylbTkhdYzNbY0hdbltjSF1bY0hdYzNbQ0gzXQ==

> <s_epik_cmdline>
J2VwaWtfcHl0aG9uJywgJy1waHQnLCAnMC41JywgJy1waCcsICc3LjQnLCAnLXRuJywgJzgnLCAnLW1hJywgJzIwMCcsICctaW1hZScsICc8aW5maWxlLm1hZT4nLCAnLW9tYWUnLCAnPG91dGZpbGUubWFlPic=

> <r_lp_tautomer_probability>
1.0

> <r_epik_Ionization_Penalty>
0.0032

> <r_epik_Ionization_Penalty_Charging>
0.0

> <r_epik_Ionization_Penalty_Neutral>
0.0032

> <r_epik_State_Penalty>
0.0

> <r_epik_Charging_Adjusted_Penalty>
0.0

> <i_epik_Tot_Q>
0

> <i_epik_Tot_abs_Q>
0

> <s_lp_Force_Field>
OPLS3

> <r_lp_Energy>
35.1967

> <b_lp_Chiralities_Consistent>
1

> <s_lp_Variant>
ligprep_COVID_compounds-withfrags-smallmolecules-forvalidation.maegz:72-1

> <i_glide_original_lignum>
246

> <s_i_glide_gridfile>
glide-grid_5RGK_M-PRO_COVID

> <i_i_glide_lignum>
246

> <r_i_docking_score>
-3.93422314227759

> <r_i_glide_ligand_efficiency>
-0.151316274702984

> <r_i_glide_ligand_efficiency_sa>
-0.448273868406801

> <r_i_glide_ligand_efficiency_ln>
-0.923939395724838

> <r_glide_XP_GScore>
-3.93422314227759

> <r_i_glide_gscore>
-3.93422314227759

> <r_i_glide_evdw>
-36.5948677062988

> <r_i_glide_ecoul>
-12.9080562591553

> <r_i_glide_energy>
-49.5029239654541

> <r_i_glide_einternal>
5.41617488861084

> <r_i_glide_emodel>
-63.4501635050826

> <r_glide_XP_HBond>
-0.859860812696298

> <i_i_glide_confnum>
1

> <i_i_glide_posenum>
3

> <r_i_glide_eff_state_penalty>
0.0

> <i_glide_XP_PoseRank>
1

> <MW>
372.1

> <cLogP>
3.5

> <TPSA>
90.14

> <Rotatable Bonds>
6

> <Fraction sp3>
0.22

> <HBA>
6

> <HBD>
1

> <Structure ID>
x11723

> <s_epik_Chemistry_Notes>


> <Submission Fragments>


$$$$
ligprep_COVID_compounds-withfrags-smallmolecules-forvalidation.maegz:6
                    3D
 Structure written by MMmdl.
 56 59  0  0  1  0            999 V2000
    2.0975    3.4687   20.1164 C   0  0  0  0  0  0
    2.5424    2.2974   21.0296 C   0  0  1  0  0  0
    3.8101    1.5397   20.5526 C   0  0  0  0  0  0
    4.1216    1.4696   19.1730 C   0  0  0  0  0  0
    5.2558    0.7935   18.6976 C   0  0  0  0  0  0
    6.1141    0.1599   19.6017 C   0  0  0  0  0  0
    5.8316    0.1872   20.9790 C   0  0  0  0  0  0
    6.7168   -0.4633   21.7961 O   0  0  0  0  0  0
    4.6670    0.8582   21.4715 C   0  0  0  0  0  0
    4.3154    0.8175   22.9291 C   0  0  0  0  0  0
    4.9694    0.1819   23.7560 O   0  0  0  0  0  0
    3.1020    1.5473   23.3675 C   0  0  0  0  0  0
    2.7140    2.7570   22.5144 C   0  0  2  0  0  0
    1.4925    3.5312   23.1134 C   0  0  1  0  0  0
    1.3657    3.4276   24.6568 C   0  0  2  0  0  0
    2.5445    4.1507   25.4024 C   0  0  1  0  0  0
    2.1640    5.5778   25.5081 N   0  0  0  0  0  0
    3.2946    6.4956   25.3984 C   0  0  0  0  0  0
    1.3875    5.9032   26.7022 C   0  0  0  0  0  0
    3.0185    3.4966   26.7454 C   0  0  0  0  0  0
    4.0743    4.0792   27.0927 O   0  5  0  0  0  0
    2.3121    2.4319   27.3202 C   0  0  0  0  0  0
    2.7741    1.9042   28.6246 C   0  0  0  0  0  0
    1.9922    0.9730   29.1679 N   0  0  0  0  0  0
    3.7946    2.2283   29.2261 O   0  0  0  0  0  0
    1.1591    1.8522   26.5811 C   0  0  0  0  0  0
    0.2235    1.2424   27.1104 O   0  0  0  0  0  0
    1.2177    1.9415   25.0424 C   0  0  2  0  0  0
    2.3827    1.1386   24.4439 C   0  0  0  0  0  0
    2.6705    0.0382   25.1694 O   0  0  0  0  0  0
    0.0035    1.4295   24.5171 O   0  0  0  0  0  0
    1.4894    4.8936   22.7333 O   0  0  0  0  0  0
    1.4229    1.4361   20.9711 O   0  0  0  0  0  0
    2.7744    4.3138   20.1723 H   0  0  0  0  0  0
    1.1232    3.8586   20.4071 H   0  0  0  0  0  0
    1.9799    3.1885   19.0723 H   0  0  0  0  0  0
    3.5047    1.9525   18.4377 H   0  0  0  0  0  0
    5.4568    0.7650   17.6372 H   0  0  0  0  0  0
    6.9893   -0.3559   19.2344 H   0  0  0  0  0  0
    7.4867   -0.8160   21.3692 H   0  0  0  0  0  0
    3.5741    3.4292   22.5524 H   0  0  0  0  0  0
    0.5753    3.1224   22.6905 H   0  0  0  0  0  0
    0.4278    3.9086   24.9419 H   0  0  0  0  0  0
    3.3977    4.1016   24.7266 H   0  0  0  0  0  0
    3.8852    6.2807   24.5074 H   0  0  0  0  0  0
    3.9563    6.4468   26.2630 H   0  0  0  0  0  0
    2.9382    7.5227   25.3172 H   0  0  0  0  0  0
    0.5308    5.2380   26.8069 H   0  0  0  0  0  0
    1.0068    6.9235   26.6396 H   0  0  0  0  0  0
    1.9898    5.8243   27.6087 H   0  0  0  0  0  0
    1.1443    0.7181   28.6756 H   0  0  0  0  0  0
    2.2431    0.5576   30.0509 H   0  0  0  0  0  0
    3.4767   -0.3268   24.8247 H   0  0  0  0  0  0
   -0.2156    0.6751   25.0462 H   0  0  0  0  0  0
    2.0404    5.3670   23.3505 H   0  0  0  0  0  0
    0.6693    1.9151   21.2823 H   0  0  0  0  0  0
  1  2  1  0  0  0
  1 34  1  0  0  0
  1 35  1  0  0  0
  1 36  1  0  0  0
  2  3  1  0  0  0
  2 33  1  0  0  0
  2 13  1  0  0  0
  3  4  2  0  0  0
  3  9  1  0  0  0
  4  5  1  0  0  0
  4 37  1  0  0  0
  5  6  2  0  0  0
  5 38  1  0  0  0
  6  7  1  0  0  0
  6 39  1  0  0  0
  7  8  1  0  0  0
  7  9  2  0  0  0
  8 40  1  0  0  0
  9 10  1  0  0  0
 10 11  2  0  0  0
 10 12  1  0  0  0
 12 13  1  0  0  0
 12 29  2  0  0  0
 13 14  1  0  0  0
 13 41  1  0  0  0
 14 15  1  0  0  0
 14 32  1  0  0  0
 14 42  1  0  0  0
 15 16  1  0  0  0
 15 28  1  0  0  0
 15 43  1  0  0  0
 16 17  1  0  0  0
 16 20  1  0  0  0
 16 44  1  0  0  0
 17 18  1  0  0  0
 17 19  1  0  0  0
 18 45  1  0  0  0
 18 46  1  0  0  0
 18 47  1  0  0  0
 19 48  1  0  0  0
 19 49  1  0  0  0
 19 50  1  0  0  0
 20 21  1  0  0  0
 20 22  2  0  0  0
 22 23  1  0  0  0
 22 26  1  0  0  0
 23 24  1  0  0  0
 23 25  2  0  0  0
 24 51  1  0  0  0
 24 52  1  0  0  0
 26 27  2  0  0  0
 26 28  1  0  0  0
 28 29  1  0  0  0
 28 31  1  0  0  0
 29 30  1  0  0  0
 30 53  1  0  0  0
 31 54  1  0  0  0
 32 55  1  0  0  0
 33 56  1  0  0  0
M  CHG  1  21  -1
M  END
> <s_m_entry_id>
2018

> <s_m_entry_name>
Compounds-withfrags-for-validation-docking.1911

> <s_m_Source_Path>
/home/rodolpho/data/melina/maestro/glide-dock_XP_5RGK_M-PRO_VALIDATION

> <s_m_Source_File>
glide-dock_XP_5RGK_M-PRO_VALIDATION_pv.maegz

> <i_m_Source_File_Index>
2018

> <CID>
Oxitetracyclin

> <Potency>
15.15

> <pIC50>
4.81959

> <Source>
https://doi.org/10.1101/2020.03.23.004580

> <smiles>
C(C1(C2=C(C(=C(C(O[H])=C2C(O[H])=C2C1(C(C1(C(N(C([H])([H])[H])C([H])([H])[H])([H])C(=O)C(=C(N([H])[H])O[H])C(=O)C1(C2=O)O[H])[H])(O[H])[H])[H])[H])[H])[H])O[H])([H])([H])[H]

> <Outcome>
Inactive

> <StandardizerResult>
Clear Stereo (ID: ClearStereo)
Wedge Clean (ID: WedgeClean)
Mesomerize (ID: Mesomerize)
Tautomerize (ID: Tautomerize)
Aromatize (ID: Aromatize)
Add Explicit Hydrogens (ID: AddExplicitH)
Neutralize (ID: Neutralize)
Clean 2D (ID: Clean2D)

> <chiral flag>
0

> <version>
0

> <i_lp_mmshare_version>
41011

> <i_f3d_flags>
0

> <s_epik_input>
W09IXWMxW2NIXVtjSF1bY0hdYyhbQ0BAXTIoW0NIM10pW09IXSljMUMoPU8pQyg9QzNbT0hdKVtDQEBIXTJbQ0BIXShbT0hdKVtDQEBIXShbQ0BAXTM0W09IXSlbQ0BASF0oTihbQ0gzXSlbQ0gzXSlDKD1PKVtDQEhdKEM0PU8pQyg9TylbTkgyXQ==

> <s_epik_cmdline>
J2VwaWtfcHl0aG9uJywgJy1waHQnLCAnMC41JywgJy1waCcsICc3LjQnLCAnLXRuJywgJzgnLCAnLW1hJywgJzIwMCcsICctaW1hZScsICc8aW5maWxlLm1hZT4nLCAnLW9tYWUnLCAnPG91dGZpbGUubWFlPic=

> <r_epik_Ionization_Penalty>
0.3646

> <r_epik_Ionization_Penalty_Charging>
0.0013

> <r_epik_Ionization_Penalty_Neutral>
0.3633

> <r_epik_State_Penalty>
0.3215

> <r_epik_Charging_Adjusted_Penalty>
0.322822

> <i_epik_Tot_Q>
-1

> <i_epik_Tot_abs_Q>
1

> <s_lp_Force_Field>
OPLS3

> <r_lp_Energy>
58.3509

> <b_lp_Chiralities_Consistent>
1

> <s_lp_Variant>
ligprep_COVID_compounds-withfrags-smallmolecules-forvalidation.maegz:6-14

> <i_glide_original_lignum>
66

> <s_i_glide_gridfile>
glide-grid_5RGK_M-PRO_COVID

> <i_i_glide_lignum>
66

> <r_i_docking_score>
-3.92725731951096

> <r_i_glide_ligand_efficiency>
-0.119007797560938

> <r_i_glide_ligand_efficiency_sa>
-0.381721595769005

> <r_i_glide_ligand_efficiency_ln>
-0.873401693609103

> <r_glide_XP_GScore>
-4.24875431951096

> <r_i_glide_gscore>
-4.24875431951096

> <r_i_glide_evdw>
-20.1466217041016

> <r_i_glide_ecoul>
-6.7637825012207

> <r_i_glide_energy>
-26.9104042053223

> <r_i_glide_einternal>
1.97131502628326

> <r_i_glide_emodel>
-30.15869140625

> <r_glide_XP_HBond>
-1.64937390702025

> <i_i_glide_confnum>
1

> <i_i_glide_posenum>
50

> <r_i_glide_eff_state_penalty>
0.321497

> <i_glide_XP_PoseRank>
1

> <r_lp_tautomer_probability>


> <s_epik_Chemistry_Notes>


> <MW>


> <cLogP>


> <TPSA>


> <Rotatable Bonds>


> <Fraction sp3>


> <HBA>


> <HBD>


> <Structure ID>


> <Submission Fragments>


$$$$
ligprep_COVID_compounds-withfrags-smallmolecules-forvalidation.maegz:58
                    3D
 Structure written by MMmdl.
 39 42  0  0  1  0            999 V2000
    7.6309   -0.3241   25.2507 C   0  0  0  0  0  0
    7.1399   -0.0544   23.8358 C   0  0  0  0  0  0
    7.0296    1.2976   23.4210 C   0  0  0  0  0  0
    6.5581    1.6172   22.1738 C   0  0  0  0  0  0
    6.2421    0.6140   21.3159 N   0  0  0  0  0  0
    5.7858    0.6658   20.0388 C   0  0  0  0  0  0
    5.6292   -0.5684   19.5647 N   0  0  0  0  0  0
    5.9750   -1.4607   20.5736 N   0  0  0  0  0  0
    6.3395   -0.7479   21.6452 C   0  0  0  0  0  0
    6.7749   -1.0740   22.9654 C   0  0  0  0  0  0
    6.7754   -2.4443   23.3513 N   0  0  0  0  0  0
    7.8448   -3.1401   23.7833 C   0  0  0  0  0  0
    8.9853   -2.6705   23.7716 O   0  0  0  0  0  0
    7.6103   -4.5885   24.2624 C   0  0  1  0  0  0
    8.9259   -5.3825   24.3713 C   0  0  0  0  0  0
    9.6703   -5.0629   25.6745 C   0  0  0  0  0  0
    8.8825   -5.3637   26.8152 O   0  0  0  0  0  0
    7.5474   -5.0362   26.7814 C   0  0  0  0  0  0
    6.8314   -5.1670   27.9862 C   0  0  0  0  0  0
    5.4623   -4.8601   28.0464 C   0  0  0  0  0  0
    4.7911   -4.4386   26.8865 C   0  0  0  0  0  0
    3.1102   -4.0627   26.9686 Cl  0  0  0  0  0  0
    5.4881   -4.3378   25.6661 C   0  0  0  0  0  0
    6.8702   -4.6297   25.6001 C   0  0  0  0  0  0
    7.0225   -1.0814   25.7457 H   0  0  0  0  0  0
    7.5870    0.5780   25.8562 H   0  0  0  0  0  0
    8.6703   -0.6483   25.2471 H   0  0  0  0  0  0
    7.3017    2.1016   24.0979 H   0  0  0  0  0  0
    6.4491    2.6362   21.8149 H   0  0  0  0  0  0
    5.5818    1.5742   19.4884 H   0  0  0  0  0  0
    5.8994   -2.9388   23.2081 H   0  0  0  0  0  0
    6.9857   -5.0752   23.5123 H   0  0  0  0  0  0
    8.7158   -6.4493   24.3384 H   0  0  0  0  0  0
    9.5726   -5.1757   23.5241 H   0  0  0  0  0  0
   10.5863   -5.6509   25.7300 H   0  0  0  0  0  0
    9.9730   -4.0175   25.7207 H   0  0  0  0  0  0
    7.3420   -5.5111   28.8724 H   0  0  0  0  0  0
    4.9279   -4.9551   28.9798 H   0  0  0  0  0  0
    4.9541   -4.0433   24.7765 H   0  0  0  0  0  0
  1  2  1  0  0  0
  1 25  1  0  0  0
  1 26  1  0  0  0
  1 27  1  0  0  0
  2  3  1  0  0  0
  2 10  2  0  0  0
  3  4  2  0  0  0
  3 28  1  0  0  0
  4  5  1  0  0  0
  4 29  1  0  0  0
  5  6  1  0  0  0
  5  9  1  0  0  0
  6  7  2  0  0  0
  6 30  1  0  0  0
  7  8  1  0  0  0
  8  9  2  0  0  0
  9 10  1  0  0  0
 10 11  1  0  0  0
 11 12  1  0  0  0
 11 31  1  0  0  0
 12 13  2  0  0  0
 12 14  1  0  0  0
 14 15  1  0  0  0
 14 24  1  0  0  0
 14 32  1  0  0  0
 15 16  1  0  0  0
 15 33  1  0  0  0
 15 34  1  0  0  0
 16 17  1  0  0  0
 16 35  1  0  0  0
 16 36  1  0  0  0
 17 18  1  0  0  0
 18 19  2  0  0  0
 18 24  1  0  0  0
 19 20  1  0  0  0
 19 37  1  0  0  0
 20 21  2  0  0  0
 20 38  1  0  0  0
 21 22  1  0  0  0
 21 23  1  0  0  0
 23 24  2  0  0  0
 23 39  1  0  0  0
M  END
> <s_m_entry_id>
2043

> <s_m_entry_name>
Compounds-withfrags-for-validation-docking.1859

> <s_m_Source_Path>
/home/rodolpho/data/melina/maestro/glide-dock_XP_5RGK_M-PRO_VALIDATION

> <s_m_Source_File>
glide-dock_XP_5RGK_M-PRO_VALIDATION_pv.maegz

> <i_m_Source_File_Index>
2043

> <CID>
JAG-UCB-52b62a6f-11

> <Potency>
99.5

> <pIC50>
4.00218

> <Source>
Postera

> <smiles>
Cc1ccn2cnnc2c1NC(=O)C1CCOc2ccc(Cl)cc21

> <Outcome>
Inactive

> <StandardizerResult>
Clear Stereo (ID: ClearStereo)
Wedge Clean (ID: WedgeClean)
Mesomerize (ID: Mesomerize)
Tautomerize (ID: Tautomerize)
Aromatize (ID: Aromatize)
Add Explicit Hydrogens (ID: AddExplicitH)
Neutralize (ID: Neutralize)
Clean 2D (ID: Clean2D)

> <chiral flag>
0

> <version>
0

> <i_lp_mmshare_version>
41011

> <i_f3d_flags>
0

> <s_epik_input>
W2NIXTFubmMobjEyKWMoYyhbQ0gzXSlbY0hdW2NIXTIpW05IXUMoPU8pW0NAQEhdKFtDSDJdW0NIMl1PMyljKGMzNClbY0hdYyhDbClbY0hdW2NIXTQ=

> <s_epik_cmdline>
J2VwaWtfcHl0aG9uJywgJy1waHQnLCAnMC41JywgJy1waCcsICc3LjQnLCAnLXRuJywgJzgnLCAnLW1hJywgJzIwMCcsICctaW1hZScsICc8aW5maWxlLm1hZT4nLCAnLW9tYWUnLCAnPG91dGZpbGUubWFlPic=

> <r_lp_tautomer_probability>
1.0

> <r_epik_Ionization_Penalty>
0.0

> <r_epik_Ionization_Penalty_Charging>
0.0

> <r_epik_Ionization_Penalty_Neutral>
0.0

> <r_epik_State_Penalty>
0.0

> <r_epik_Charging_Adjusted_Penalty>
0.0

> <i_epik_Tot_Q>
0

> <i_epik_Tot_abs_Q>
0

> <s_lp_Force_Field>
OPLS3

> <r_lp_Energy>
38.7047

> <b_lp_Chiralities_Consistent>
1

> <s_lp_Variant>
ligprep_COVID_compounds-withfrags-smallmolecules-forvalidation.maegz:58-2

> <i_glide_original_lignum>
228

> <s_i_glide_gridfile>
glide-grid_5RGK_M-PRO_COVID

> <i_i_glide_lignum>
228

> <r_i_docking_score>
-3.91093698333552

> <r_i_glide_ligand_efficiency>
-0.16295570763898

> <r_i_glide_ligand_efficiency_sa>
-0.470045598144974

> <r_i_glide_ligand_efficiency_ln>
-0.936066681316507

> <r_glide_XP_GScore>
-3.91093698333552

> <r_i_glide_gscore>
-3.91093698333552

> <r_i_glide_evdw>
-27.5310306549072

> <r_i_glide_ecoul>
-8.28638458251953

> <r_i_glide_energy>
-35.8174152374268

> <r_i_glide_einternal>
4.15022230148315

> <r_i_glide_emodel>
-45.9729764510692

> <r_glide_XP_HBond>
-0.35

> <i_i_glide_confnum>
1

> <i_i_glide_posenum>
38

> <r_i_glide_eff_state_penalty>
0.0

> <i_glide_XP_PoseRank>
1

> <MW>
342.09

> <cLogP>
3.2

> <TPSA>
68.52

> <Rotatable Bonds>
2

> <Fraction sp3>
0.24

> <HBA>
5

> <HBD>
1

> <s_epik_Chemistry_Notes>


> <Structure ID>


> <Submission Fragments>


$$$$
ligprep_COVID_compounds-withfrags-smallmolecules-forvalidation.maegz:27
                    3D
 Structure written by MMmdl.
 70 74  0  0  1  0            999 V2000
    8.0909    1.4758   24.4195 O   0  0  0  0  0  0
    7.4078    2.0037   23.5407 C   0  0  0  0  0  0
    7.3837    3.3325   23.3314 N   0  0  0  0  0  0
    8.1145    4.3131   24.1276 C   0  0  0  0  0  0
    9.3962    4.8203   23.4385 C   0  0  0  0  0  0
   10.4981    3.7722   23.4189 C   0  0  0  0  0  0
   11.6225    3.9462   22.6049 C   0  0  0  0  0  0
   12.6286    2.9795   22.5807 C   0  0  0  0  0  0
   12.5155    1.8344   23.3694 C   0  0  0  0  0  0
   11.3963    1.6555   24.1830 C   0  0  0  0  0  0
   11.2867    0.5455   24.9473 F   0  0  0  0  0  0
   10.3895    2.6216   24.2072 C   0  0  0  0  0  0
    6.5679    1.0922   22.5934 C   0  0  1  0  0  0
    6.6722   -0.4029   22.8736 C   0  0  0  0  0  0
    6.7762   -0.8591   24.1947 C   0  0  0  0  0  0
    6.8844   -2.2250   24.4607 C   0  0  0  0  0  0
    6.8833   -3.1133   23.3861 C   0  0  0  0  0  0
    6.7788   -2.7078   22.0963 N   0  0  0  0  0  0
    6.6740   -1.3756   21.8587 C   0  0  0  0  0  0
    5.1395    1.4906   22.3567 N   0  0  0  0  0  0
    4.5153    1.2307   21.1585 C   0  0  0  0  0  0
    3.3136    1.4301   20.9693 O   0  0  0  0  0  0
    5.2769    0.6587   20.0732 C   0  0  0  0  0  0
    6.4273   -0.1286   20.0521 C   0  0  0  0  0  0
    6.6279   -0.5245   18.7293 C   0  0  0  0  0  0
    5.5581   -0.0228   18.0088 C   0  0  0  0  0  0
    4.7211    0.6619   18.8300 O   0  0  0  0  0  0
    4.4231    1.9768   23.5695 C   0  0  0  0  0  0
    4.0142    3.4649   23.5416 C   0  0  0  0  0  0
    3.3292    3.8969   24.8560 C   0  0  0  0  0  0
    2.1471    3.0687   25.1580 N   0  0  0  0  0  0
    1.1387    3.5272   26.0028 C   0  0  0  0  0  0
    1.3319    4.7231   26.7079 C   0  0  0  0  0  0
    0.3497    5.2106   27.5659 C   0  0  0  0  0  0
   -0.8378    4.5031   27.7266 C   0  0  0  0  0  0
   -1.0490    3.3125   27.0377 C   0  0  0  0  0  0
   -0.0648    2.8260   26.1812 C   0  0  0  0  0  0
    2.6048    1.6783   25.3344 C   0  0  0  0  0  0
    3.2325    1.1165   24.0417 C   0  0  0  0  0  0
    6.7965    3.6959   22.5946 H   0  0  0  0  0  0
    7.4629    5.1506   24.3868 H   0  0  0  0  0  0
    8.3763    3.8354   25.0725 H   0  0  0  0  0  0
    9.1757    5.1265   22.4142 H   0  0  0  0  0  0
    9.7670    5.7170   23.9381 H   0  0  0  0  0  0
   11.7174    4.8288   21.9889 H   0  0  0  0  0  0
   13.4948    3.1170   21.9505 H   0  0  0  0  0  0
   13.2946    1.0864   23.3498 H   0  0  0  0  0  0
    9.5244    2.4740   24.8376 H   0  0  0  0  0  0
    7.0907    1.2503   21.6507 H   0  0  0  0  0  0
    6.7747   -0.1629   25.0188 H   0  0  0  0  0  0
    6.9676   -2.5851   25.4754 H   0  0  0  0  0  0
    6.9669   -4.1775   23.5510 H   0  0  0  0  0  0
    6.6023   -1.0959   20.8178 H   0  0  0  0  0  0
    7.0497   -0.3844   20.8972 H   0  0  0  0  0  0
    7.4389   -1.1280   18.3492 H   0  0  0  0  0  0
    5.2652   -0.0851   16.9709 H   0  0  0  0  0  0
    5.1170    1.9380   24.4030 H   0  0  0  0  0  0
    4.8936    4.0870   23.3718 H   0  0  0  0  0  0
    3.3390    3.6599   22.7073 H   0  0  0  0  0  0
    4.0362    3.8515   25.6865 H   0  0  0  0  0  0
    3.0266    4.9399   24.7516 H   0  0  0  0  0  0
    2.2520    5.2794   26.5992 H   0  0  0  0  0  0
    0.5094    6.1326   28.1052 H   0  0  0  0  0  0
   -1.6008    4.8809   28.3913 H   0  0  0  0  0  0
   -1.9733    2.7687   27.1655 H   0  0  0  0  0  0
   -0.2559    1.9037   25.6529 H   0  0  0  0  0  0
    3.3230    1.6315   26.1553 H   0  0  0  0  0  0
    1.7724    1.0338   25.6192 H   0  0  0  0  0  0
    2.4587    1.0687   23.2761 H   0  0  0  0  0  0
    3.5612    0.0903   24.2100 H   0  0  0  0  0  0
  1  2  2  0  0  0
  2  3  1  0  0  0
  2 13  1  0  0  0
  3  4  1  0  0  0
  3 40  1  0  0  0
  4  5  1  0  0  0
  4 41  1  0  0  0
  4 42  1  0  0  0
  5  6  1  0  0  0
  5 43  1  0  0  0
  5 44  1  0  0  0
  6  7  2  0  0  0
  6 12  1  0  0  0
  7  8  1  0  0  0
  7 45  1  0  0  0
  8  9  2  0  0  0
  8 46  1  0  0  0
  9 10  1  0  0  0
  9 47  1  0  0  0
 10 11  1  0  0  0
 10 12  2  0  0  0
 12 48  1  0  0  0
 13 14  1  0  0  0
 13 20  1  0  0  0
 13 49  1  0  0  0
 14 15  2  0  0  0
 14 19  1  0  0  0
 15 16  1  0  0  0
 15 50  1  0  0  0
 16 17  2  0  0  0
 16 51  1  0  0  0
 17 18  1  0  0  0
 17 52  1  0  0  0
 18 19  2  0  0  0
 19 53  1  0  0  0
 20 21  1  0  0  0
 20 28  1  0  0  0
 21 22  2  0  0  0
 21 23  1  0  0  0
 23 24  2  0  0  0
 23 27  1  0  0  0
 24 25  1  0  0  0
 24 54  1  0  0  0
 25 26  2  0  0  0
 25 55  1  0  0  0
 26 27  1  0  0  0
 26 56  1  0  0  0
 28 29  1  0  0  0
 28 39  1  0  0  0
 28 57  1  0  0  0
 29 30  1  0  0  0
 29 58  1  0  0  0
 29 59  1  0  0  0
 30 31  1  0  0  0
 30 60  1  0  0  0
 30 61  1  0  0  0
 31 32  1  0  0  0
 31 38  1  0  0  0
 32 33  2  0  0  0
 32 37  1  0  0  0
 33 34  1  0  0  0
 33 62  1  0  0  0
 34 35  2  0  0  0
 34 63  1  0  0  0
 35 36  1  0  0  0
 35 64  1  0  0  0
 36 37  2  0  0  0
 36 65  1  0  0  0
 37 66  1  0  0  0
 38 39  1  0  0  0
 38 67  1  0  0  0
 38 68  1  0  0  0
 39 69  1  0  0  0
 39 70  1  0  0  0
M  END
> <s_m_entry_id>
2065

> <s_m_entry_name>
Compounds-withfrags-for-validation-docking.1890

> <s_m_Source_Path>
/home/rodolpho/data/melina/maestro/glide-dock_XP_5RGK_M-PRO_VALIDATION

> <s_m_Source_File>
glide-dock_XP_5RGK_M-PRO_VALIDATION_pv.maegz

> <i_m_Source_File_Index>
2065

> <CID>
ALP-POS-b0bc6a46-28

> <Potency>
79.6128

> <pIC50>
4.09902

> <Source>
Postera

> <smiles>
O=C(NCCc1cccc(F)c1)C(c1cccnc1)N(C(=O)c1ccco1)C1CCN(c2ccccc2)CC1

> <Outcome>
Inactive

> <StandardizerResult>
Clear Stereo (ID: ClearStereo)
Wedge Clean (ID: WedgeClean)
Mesomerize (ID: Mesomerize)
Tautomerize (ID: Tautomerize)
Aromatize (ID: Aromatize)
Add Explicit Hydrogens (ID: AddExplicitH)
Neutralize (ID: Neutralize)
Clean 2D (ID: Clean2D)

> <chiral flag>
0

> <version>
0

> <i_lp_mmshare_version>
41011

> <i_f3d_flags>
0

> <s_epik_input>
RmMoW2NIXTEpW2NIXVtjSF1bY0hdYzFbQ0gyXVtDSDJdW05IXUMoPU8pW0NAQEhdKGMyW2NIXVtjSF1bY0hdbltjSF0yKU4oQyg9TyljM1tjSF1bY0hdW2NIXW8zKVtDSF00W0NIMl1bQ0gyXU4oW0NIMl1bQ0gyXTQpYzVbY0hdW2NIXVtjSF1bY0hdW2NIXTU=

> <s_epik_cmdline>
J2VwaWtfcHl0aG9uJywgJy1waHQnLCAnMC41JywgJy1waCcsICc3LjQnLCAnLXRuJywgJzgnLCAnLW1hJywgJzIwMCcsICctaW1hZScsICc8aW5maWxlLm1hZT4nLCAnLW9tYWUnLCAnPG91dGZpbGUubWFlPic=

> <r_lp_tautomer_probability>
1.0

> <r_epik_Ionization_Penalty>
0.0042

> <r_epik_Ionization_Penalty_Charging>
0.0

> <r_epik_Ionization_Penalty_Neutral>
0.0042

> <r_epik_State_Penalty>
0.0

> <r_epik_Charging_Adjusted_Penalty>
0.0

> <i_epik_Tot_Q>
0

> <i_epik_Tot_abs_Q>
0

> <s_lp_Force_Field>
OPLS3

> <r_lp_Energy>
67.7315

> <b_lp_Chiralities_Consistent>
1

> <s_lp_Variant>
ligprep_COVID_compounds-withfrags-smallmolecules-forvalidation.maegz:27-1

> <i_glide_original_lignum>
149

> <s_i_glide_gridfile>
glide-grid_5RGK_M-PRO_COVID

> <i_i_glide_lignum>
149

> <r_i_docking_score>
-3.89690622463386

> <r_i_glide_ligand_efficiency>
-0.0999206724265093

> <r_i_glide_ligand_efficiency_sa>
-0.338852127312647

> <r_i_glide_ligand_efficiency_ln>
-0.835607314822987

> <r_glide_XP_GScore>
-3.89690622463386

> <r_i_glide_gscore>
-3.89690622463386

> <r_i_glide_evdw>
-31.4662170410156

> <r_i_glide_ecoul>
-6.58015060424805

> <r_i_glide_energy>
-38.0463676452637

> <r_i_glide_einternal>
8.21621799468994

> <r_i_glide_emodel>
-51.2345429037069

> <r_glide_XP_HBond>
-0.67175772927522

> <i_i_glide_confnum>
1

> <i_i_glide_posenum>
3

> <r_i_glide_eff_state_penalty>
0.0

> <i_glide_XP_PoseRank>
1

> <MW>
526.24

> <cLogP>
5.03

> <TPSA>
78.68

> <Rotatable Bonds>
9

> <Fraction sp3>
0.26

> <HBA>
5

> <HBD>
1

> <s_epik_Chemistry_Notes>


> <Structure ID>


> <Submission Fragments>


$$$$
ligprep_COVID_compounds-withfrags-smallmolecules-forvalidation.maegz:7
                    3D
 Structure written by MMmdl.
 46 46  0  0  1  0            999 V2000
    8.9370   -4.9765   26.8491 C   0  0  0  0  0  0
    7.5459   -4.3607   27.1130 C   0  0  0  0  0  0
    6.4215   -5.4179   27.0769 C   0  0  0  0  0  0
    7.2735   -3.1739   26.1541 C   0  0  0  0  0  0
    8.5216   -2.3542   25.7003 C   0  0  1  0  0  0
    8.9032   -2.7377   24.2354 C   0  0  0  0  0  0
    8.0664   -3.4732   23.6666 O   0  0  0  0  0  0
    9.9770   -2.2540   23.8061 O   0  5  0  0  0  0
    8.2170   -0.9191   25.7015 N   0  0  0  0  0  0
    9.0953    0.0708   25.4653 C   0  0  0  0  0  0
   10.1829    0.1530   26.0402 O   0  0  0  0  0  0
    8.6736    1.1131   24.4082 C   0  0  2  0  0  0
    8.8410    2.5885   24.8807 C   0  0  1  0  0  0
    9.3541    3.6033   23.8224 C   0  0  0  0  0  0
   10.7891    3.3529   23.3703 C   0  0  0  0  0  0
   11.5869    4.4176   22.9407 C   0  0  0  0  0  0
   12.8998    4.1840   22.5394 C   0  0  0  0  0  0
   13.4098    2.8878   22.5676 C   0  0  0  0  0  0
   12.6191    1.8220   22.9923 C   0  0  0  0  0  0
   11.3064    2.0548   23.3936 C   0  0  0  0  0  0
    7.4870    3.0778   25.4196 N   0  3  0  0  0  0
    7.3116    0.8927   24.0731 O   0  0  0  0  0  0
    8.8823   -6.0020   26.4841 H   0  0  0  0  0  0
    9.5331   -4.9888   27.7620 H   0  0  0  0  0  0
    9.5009   -4.4101   26.1075 H   0  0  0  0  0  0
    7.5818   -3.9660   28.1290 H   0  0  0  0  0  0
    5.7928   -5.3161   26.1921 H   0  0  0  0  0  0
    5.7748   -5.3175   27.9492 H   0  0  0  0  0  0
    6.8022   -6.4391   27.0820 H   0  0  0  0  0  0
    6.7341   -3.5354   25.2760 H   0  0  0  0  0  0
    6.5762   -2.5022   26.6569 H   0  0  0  0  0  0
    9.3768   -2.5419   26.3537 H   0  0  0  0  0  0
    7.2513   -0.6891   25.8878 H   0  0  0  0  0  0
    9.2527    0.9502   23.4964 H   0  0  0  0  0  0
    9.4718    2.6312   25.7717 H   0  0  0  0  0  0
    8.7268    3.5659   22.9303 H   0  0  0  0  0  0
    9.2577    4.6243   24.1969 H   0  0  0  0  0  0
   11.1940    5.4238   22.9180 H   0  0  0  0  0  0
   13.5202    5.0035   22.2074 H   0  0  0  0  0  0
   14.4281    2.7068   22.2560 H   0  0  0  0  0  0
   13.0227    0.8201   23.0105 H   0  0  0  0  0  0
   10.6945    1.2277   23.7243 H   0  0  0  0  0  0
    6.8005    3.0904   24.6792 H   0  0  0  0  0  0
    7.5810    4.0114   25.7941 H   0  0  0  0  0  0
    6.7826    0.9794   24.8704 H   0  0  0  0  0  0
    7.1658    2.4610   26.1523 H   0  0  0  0  0  0
  1  2  1  0  0  0
  1 23  1  0  0  0
  1 24  1  0  0  0
  1 25  1  0  0  0
  2  3  1  0  0  0
  2  4  1  0  0  0
  2 26  1  0  0  0
  3 27  1  0  0  0
  3 28  1  0  0  0
  3 29  1  0  0  0
  4  5  1  0  0  0
  4 30  1  0  0  0
  4 31  1  0  0  0
  5  6  1  0  0  0
  5  9  1  0  0  0
  5 32  1  0  0  0
  6  7  2  0  0  0
  6  8  1  0  0  0
  9 10  1  0  0  0
  9 33  1  0  0  0
 10 11  2  0  0  0
 10 12  1  0  0  0
 12 13  1  0  0  0
 12 22  1  0  0  0
 12 34  1  0  0  0
 13 14  1  0  0  0
 13 21  1  0  0  0
 13 35  1  0  0  0
 14 15  1  0  0  0
 14 36  1  0  0  0
 14 37  1  0  0  0
 15 16  2  0  0  0
 15 20  1  0  0  0
 16 17  1  0  0  0
 16 38  1  0  0  0
 17 18  2  0  0  0
 17 39  1  0  0  0
 18 19  1  0  0  0
 18 40  1  0  0  0
 19 20  2  0  0  0
 19 41  1  0  0  0
 20 42  1  0  0  0
 21 43  1  0  0  0
 21 44  1  0  0  0
 21 46  1  0  0  0
 22 45  1  0  0  0
M  CHG  2   8  -1  21   1
M  END
> <s_m_entry_id>
2071

> <s_m_entry_name>
Compounds-withfrags-for-validation-docking.1910

> <s_m_Source_Path>
/home/rodolpho/data/melina/maestro/glide-dock_XP_5RGK_M-PRO_VALIDATION

> <s_m_Source_File>
glide-dock_XP_5RGK_M-PRO_VALIDATION_pv.maegz

> <i_m_Source_File_Index>
2071

> <CID>
Ubenimex

> <Potency>
12.83

> <pIC50>
4.89177

> <Source>
https://doi.org/10.1101/2020.03.23.004580

> <smiles>
C(C(C([H])([H])[H])(C(C(C(=O)O[H])(N(C(=O)C(C(C(C1=C([H])C([H])=C([H])C([H])=C1[H])([H])[H])(N([H])[H])[H])(O[H])[H])[H])[H])([H])[H])[H])([H])([H])[H]

> <Outcome>
Inactive

> <StandardizerResult>
Clear Stereo (ID: ClearStereo)
Wedge Clean (ID: WedgeClean)
Mesomerize (ID: Mesomerize)
Tautomerize (ID: Tautomerize)
Aromatize (ID: Aromatize)
Add Explicit Hydrogens (ID: AddExplicitH)
Neutralize (ID: Neutralize)
Clean 2D (ID: Clean2D)

> <chiral flag>
0

> <version>
0

> <i_lp_mmshare_version>
41011

> <i_f3d_flags>
0

> <s_epik_input>
W0NIM11bQ0hdKFtDSDNdKVtDSDJdW0NAQEhdKEMoPU8pW09IXSlbTkhdQyg9TylbQ0BASF0oW09IXSlbQ0BIXShbTkgyXSlbQ0gyXWMxW2NIXVtjSF1bY0hdW2NIXVtjSF0x

> <s_epik_cmdline>
J2VwaWtfcHl0aG9uJywgJy1waHQnLCAnMC41JywgJy1waCcsICc3LjQnLCAnLXRuJywgJzgnLCAnLW1hJywgJzIwMCcsICctaW1hZScsICc8aW5maWxlLm1hZT4nLCAnLW9tYWUnLCAnPG91dGZpbGUubWFlPic=

> <r_epik_Ionization_Penalty>
0.0844

> <r_epik_Ionization_Penalty_Charging>
0.0843

> <r_epik_Ionization_Penalty_Neutral>
1.0E-4

> <r_epik_State_Penalty>
0.0749

> <r_epik_Charging_Adjusted_Penalty>
0.15915

> <i_epik_Tot_Q>
0

> <i_epik_Tot_abs_Q>
2

> <s_lp_Force_Field>
OPLS3

> <r_lp_Energy>
27.0206

> <b_lp_Chiralities_Consistent>
1

> <s_lp_Variant>
ligprep_COVID_compounds-withfrags-smallmolecules-forvalidation.maegz:7-4

> <i_glide_original_lignum>
104

> <s_i_glide_gridfile>
glide-grid_5RGK_M-PRO_COVID

> <i_i_glide_lignum>
104

> <r_i_docking_score>
-3.89275923040163

> <r_i_glide_ligand_efficiency>
-0.176943601381892

> <r_i_glide_ligand_efficiency_sa>
-0.495802929869022

> <r_i_glide_ligand_efficiency_ln>
-0.951532347753098

> <r_glide_XP_GScore>
-3.96761513040163

> <r_i_glide_gscore>
-3.96761513040163

> <r_i_glide_evdw>
-24.3541622161865

> <r_i_glide_ecoul>
-15.4212665557861

> <r_i_glide_energy>
-39.7754287719727

> <r_i_glide_einternal>
13.8267822265625

> <r_i_glide_emodel>
-46.9689934116192

> <r_glide_XP_HBond>
-1.46415770349333

> <i_i_glide_confnum>
1

> <i_i_glide_posenum>
10

> <r_i_glide_eff_state_penalty>
0.0748559

> <i_glide_XP_PoseRank>
1

> <r_lp_tautomer_probability>


> <s_epik_Chemistry_Notes>


> <MW>


> <cLogP>


> <TPSA>


> <Rotatable Bonds>


> <Fraction sp3>


> <HBA>


> <HBD>


> <Structure ID>


> <Submission Fragments>


$$$$
ligprep_COVID_compounds-withfrags-smallmolecules-forvalidation.maegz:29
                    3D
 Structure written by MMmdl.
 71 75  0  0  1  0            999 V2000
    4.9634   -1.3091   24.8713 O   0  0  0  0  0  0
    6.1881   -1.3902   24.9677 C   0  0  0  0  0  0
    7.0434   -0.7650   24.1392 N   0  0  0  0  0  0
    6.6496   -0.0016   22.9592 C   0  0  0  0  0  0
    5.5429   -0.6821   22.1296 C   0  0  0  0  0  0
    5.5605   -0.2494   20.6716 C   0  0  0  0  0  0
    5.1587    1.0423   20.3146 C   0  0  0  0  0  0
    5.1683    1.4358   18.9758 C   0  0  0  0  0  0
    5.5789    0.5404   17.9878 C   0  0  0  0  0  0
    5.9794   -0.7494   18.3381 C   0  0  0  0  0  0
    6.3768   -1.6176   17.3806 F   0  0  0  0  0  0
    5.9696   -1.1438   19.6767 C   0  0  0  0  0  0
    6.7944   -2.2596   26.1066 C   0  0  2  0  0  0
    8.0072   -3.1168   25.7232 C   0  0  0  0  0  0
    8.5045   -4.1346   26.5576 C   0  0  0  0  0  0
    9.6336   -4.8667   26.1887 C   0  0  0  0  0  0
   10.2641   -4.5539   24.9862 C   0  0  0  0  0  0
    9.8322   -3.5650   24.1664 N   0  0  0  0  0  0
    8.7320   -2.8658   24.5443 C   0  0  0  0  0  0
    5.7356   -2.9787   26.8900 N   0  0  0  0  0  0
    5.7927   -4.3348   27.1207 C   0  0  0  0  0  0
    6.4617   -4.8353   28.0269 O   0  0  0  0  0  0
    5.0415   -5.2297   26.2734 C   0  0  0  0  0  0
    4.4103   -6.4342   26.5644 C   0  0  0  0  0  0
    3.9304   -6.9449   25.3573 C   0  0  0  0  0  0
    4.3436   -6.0652   24.3721 C   0  0  0  0  0  0
    5.0478   -5.0439   24.9236 O   0  0  0  0  0  0
    4.6227   -2.1040   27.3501 C   0  0  2  0  0  0
    4.5403   -1.9065   28.8819 C   0  0  0  0  0  0
    3.4614   -0.8790   29.2720 C   0  0  0  0  0  0
    2.0917   -1.2378   28.6636 C   0  0  0  0  0  0
    2.1419   -1.3768   27.1173 C   0  0  1  0  0  0
    2.2181   -0.0179   26.3869 C   0  0  0  0  0  0
    2.2938    1.1585   27.1471 C   0  0  0  0  0  0
    2.3680    2.4083   26.5324 C   0  0  0  0  0  0
    2.3570    2.5035   25.1424 C   0  0  0  0  0  0
    2.4319    3.7161   24.5479 F   0  0  0  0  0  0
    2.2617    1.3475   24.3692 C   0  0  0  0  0  0
    2.2397    1.4331   23.0194 F   0  0  0  0  0  0
    2.1846    0.0988   24.9864 C   0  0  0  0  0  0
    3.2290   -2.4211   26.7359 C   0  0  0  0  0  0
    8.0330   -0.8136   24.3371 H   0  0  0  0  0  0
    6.2951    0.9696   23.3067 H   0  0  0  0  0  0
    7.5226    0.2044   22.3359 H   0  0  0  0  0  0
    5.6440   -1.7678   22.1782 H   0  0  0  0  0  0
    4.5631   -0.4603   22.5564 H   0  0  0  0  0  0
    4.8363    1.7414   21.0729 H   0  0  0  0  0  0
    4.8575    2.4341   18.7040 H   0  0  0  0  0  0
    5.5857    0.8458   16.9516 H   0  0  0  0  0  0
    6.2785   -2.1455   19.9389 H   0  0  0  0  0  0
    7.2055   -1.5117   26.7841 H   0  0  0  0  0  0
    8.0261   -4.3727   27.4950 H   0  0  0  0  0  0
   10.0118   -5.6548   26.8228 H   0  0  0  0  0  0
   11.1410   -5.0973   24.6661 H   0  0  0  0  0  0
    8.4407   -2.0769   23.8663 H   0  0  0  0  0  0
    4.2991   -6.8833   27.5403 H   0  0  0  0  0  0
    3.3694   -7.8570   25.2169 H   0  0  0  0  0  0
    4.2321   -6.0445   23.2979 H   0  0  0  0  0  0
    4.8240   -1.1102   26.9709 H   0  0  0  0  0  0
    4.3209   -2.8567   29.3701 H   0  0  0  0  0  0
    5.5079   -1.5843   29.2692 H   0  0  0  0  0  0
    3.3825   -0.8207   30.3582 H   0  0  0  0  0  0
    3.7628    0.1140   28.9346 H   0  0  0  0  0  0
    1.7596   -2.1855   29.0915 H   0  0  0  0  0  0
    1.3438   -0.5097   28.9768 H   0  0  0  0  0  0
    1.1815   -1.7818   26.7929 H   0  0  0  0  0  0
    2.2944    1.1124   28.2262 H   0  0  0  0  0  0
    2.4322    3.3027   27.1347 H   0  0  0  0  0  0
    2.0931   -0.7652   24.3479 H   0  0  0  0  0  0
    3.2965   -2.5146   25.6518 H   0  0  0  0  0  0
    2.8941   -3.4004   27.0788 H   0  0  0  0  0  0
  1  2  2  0  0  0
  2  3  1  0  0  0
  2 13  1  0  0  0
  3  4  1  0  0  0
  3 42  1  0  0  0
  4  5  1  0  0  0
  4 43  1  0  0  0
  4 44  1  0  0  0
  5  6  1  0  0  0
  5 45  1  0  0  0
  5 46  1  0  0  0
  6  7  2  0  0  0
  6 12  1  0  0  0
  7  8  1  0  0  0
  7 47  1  0  0  0
  8  9  2  0  0  0
  8 48  1  0  0  0
  9 10  1  0  0  0
  9 49  1  0  0  0
 10 11  1  0  0  0
 10 12  2  0  0  0
 12 50  1  0  0  0
 13 14  1  0  0  0
 13 20  1  0  0  0
 13 51  1  0  0  0
 14 15  2  0  0  0
 14 19  1  0  0  0
 15 16  1  0  0  0
 15 52  1  0  0  0
 16 17  2  0  0  0
 16 53  1  0  0  0
 17 18  1  0  0  0
 17 54  1  0  0  0
 18 19  2  0  0  0
 19 55  1  0  0  0
 20 21  1  0  0  0
 20 28  1  0  0  0
 21 22  2  0  0  0
 21 23  1  0  0  0
 23 24  2  0  0  0
 23 27  1  0  0  0
 24 25  1  0  0  0
 24 56  1  0  0  0
 25 26  2  0  0  0
 25 57  1  0  0  0
 26 27  1  0  0  0
 26 58  1  0  0  0
 28 29  1  0  0  0
 28 41  1  0  0  0
 28 59  1  0  0  0
 29 30  1  0  0  0
 29 60  1  0  0  0
 29 61  1  0  0  0
 30 31  1  0  0  0
 30 62  1  0  0  0
 30 63  1  0  0  0
 31 32  1  0  0  0
 31 64  1  0  0  0
 31 65  1  0  0  0
 32 33  1  0  0  0
 32 41  1  0  0  0
 32 66  1  0  0  0
 33 34  2  0  0  0
 33 40  1  0  0  0
 34 35  1  0  0  0
 34 67  1  0  0  0
 35 36  2  0  0  0
 35 68  1  0  0  0
 36 37  1  0  0  0
 36 38  1  0  0  0
 38 39  1  0  0  0
 38 40  2  0  0  0
 40 69  1  0  0  0
 41 70  1  0  0  0
 41 71  1  0  0  0
M  END
> <s_m_entry_id>
2080

> <s_m_entry_name>
Compounds-withfrags-for-validation-docking.1888

> <s_m_Source_Path>
/home/rodolpho/data/melina/maestro/glide-dock_XP_5RGK_M-PRO_VALIDATION

> <s_m_Source_File>
glide-dock_XP_5RGK_M-PRO_VALIDATION_pv.maegz

> <i_m_Source_File_Index>
2080

> <CID>
ALP-POS-b0bc6a46-26

> <Potency>
99.5

> <pIC50>
4.00218

> <Source>
Postera

> <smiles>
O=C(NCCc1cccc(F)c1)C(c1cccnc1)N(C(=O)c1ccco1)C1CCCC(c2ccc(F)c(F)c2)C1

> <Outcome>
Inactive

> <StandardizerResult>
Clear Stereo (ID: ClearStereo)
Wedge Clean (ID: WedgeClean)
Mesomerize (ID: Mesomerize)
Tautomerize (ID: Tautomerize)
Aromatize (ID: Aromatize)
Add Explicit Hydrogens (ID: AddExplicitH)
Neutralize (ID: Neutralize)
Clean 2D (ID: Clean2D)

> <chiral flag>
0

> <version>
0

> <i_lp_mmshare_version>
41011

> <i_f3d_flags>
0

> <s_epik_input>
RmMoW2NIXTEpW2NIXVtjSF1bY0hdYzFbQ0gyXVtDSDJdW05IXUMoPU8pW0NASF0oYzJbY0hdW2NIXVtjSF1uW2NIXTIpTihDKD1PKWMzW2NIXVtjSF1bY0hdbzMpW0NAQEhdNFtDSDJdW0NIMl1bQ0gyXVtDQEhdKFtDSDJdNCljNVtjSF1bY0hdYyhGKWMoRilbY0hdNQ==

> <s_epik_cmdline>
J2VwaWtfcHl0aG9uJywgJy1waHQnLCAnMC41JywgJy1waCcsICc3LjQnLCAnLXRuJywgJzgnLCAnLW1hJywgJzIwMCcsICctaW1hZScsICc8aW5maWxlLm1hZT4nLCAnLW9tYWUnLCAnPG91dGZpbGUubWFlPic=

> <r_lp_tautomer_probability>
1.0

> <r_epik_Ionization_Penalty>
8.0E-4

> <r_epik_Ionization_Penalty_Charging>
0.0

> <r_epik_Ionization_Penalty_Neutral>
8.0E-4

> <r_epik_State_Penalty>
0.0

> <r_epik_Charging_Adjusted_Penalty>
0.0

> <i_epik_Tot_Q>
0

> <i_epik_Tot_abs_Q>
0

> <s_lp_Force_Field>
OPLS3

> <r_lp_Energy>
69.0888

> <b_lp_Chiralities_Consistent>
1

> <s_lp_Variant>
ligprep_COVID_compounds-withfrags-smallmolecules-forvalidation.maegz:29-2

> <i_glide_original_lignum>
154

> <s_i_glide_gridfile>
glide-grid_5RGK_M-PRO_COVID

> <i_i_glide_lignum>
154

> <r_i_docking_score>
-3.88666246629862

> <r_i_glide_ligand_efficiency>
-0.0947966455194785

> <r_i_glide_ligand_efficiency_sa>
-0.326879427006086

> <r_i_glide_ligand_efficiency_ln>
-0.824568376444945

> <r_glide_XP_GScore>
-3.88666246629862

> <r_i_glide_gscore>
-3.88666246629862

> <r_i_glide_evdw>
-38.9634819030762

> <r_i_glide_ecoul>
-4.85596895217896

> <r_i_glide_energy>
-43.8194508552551

> <r_i_glide_einternal>
4.30795955657959

> <r_i_glide_emodel>
-60.3177814445664

> <r_glide_XP_HBond>
-0.0550198545702424

> <i_i_glide_confnum>
1

> <i_i_glide_posenum>
24

> <r_i_glide_eff_state_penalty>
0.0

> <i_glide_XP_PoseRank>
1

> <MW>
561.22

> <cLogP>
6.36

> <TPSA>
75.44

> <Rotatable Bonds>
9

> <Fraction sp3>
0.28

> <HBA>
4

> <HBD>
1

> <s_epik_Chemistry_Notes>


> <Structure ID>


> <Submission Fragments>


$$$$
ligprep_COVID_compounds-withfrags-smallmolecules-forvalidation.maegz:45
                    3D
 Structure written by MMmdl.
 66 70  0  0  1  0            999 V2000
   -3.7946    2.8300   22.7863 C   0  0  0  0  0  0
   -2.7559    3.2022   21.7273 C   0  0  0  0  0  0
   -1.4844    3.2845   22.3488 O   0  0  0  0  0  0
   -0.4448    3.6089   21.4399 C   0  0  1  0  0  0
    0.9157    3.7024   22.1391 C   0  0  0  0  0  0
    1.4165    2.5647   21.2728 C   0  0  1  0  0  0
    0.0557    2.4030   20.6332 C   0  0  0  0  0  0
    2.5989    2.7570   20.3759 C   0  0  0  0  0  0
    2.6106    1.6159   21.3778 C   0  0  1  0  0  0
    3.5904    1.6569   22.4352 N   0  0  0  0  0  0
    3.2320    1.7626   23.7482 C   0  0  0  0  0  0
    3.9436    2.3387   24.5705 O   0  0  0  0  0  0
    2.0171    1.0840   24.2925 C   0  0  0  0  0  0
    0.8267    0.6364   23.7709 C   0  0  0  0  0  0
    0.0550    0.1189   24.8465 C   0  0  0  0  0  0
    0.8138    0.2923   25.9649 C   0  0  0  0  0  0
    1.9950    0.8821   25.6467 O   0  0  0  0  0  0
    5.0161    1.6696   21.9525 C   0  0  1  0  0  0
    6.1916    1.5773   22.9707 C   0  0  0  0  0  0
    6.3072    0.5882   23.6942 O   0  0  0  0  0  0
    7.0160    2.6362   23.0638 N   0  0  0  0  0  0
    7.8166    2.9589   24.2524 C   0  0  0  0  0  0
    9.0502    2.0611   24.5387 C   0  0  0  0  0  0
   10.3769    2.3942   23.8531 C   0  0  0  0  0  0
   10.6864    3.6875   23.3708 C   0  0  0  0  0  0
   11.9264    3.9405   22.7488 C   0  0  0  0  0  0
   12.8657    2.9062   22.5960 C   0  0  0  0  0  0
   12.5814    1.6255   23.1011 C   0  0  0  0  0  0
   13.4945    0.6363   22.9704 F   0  0  0  0  0  0
   11.3492    1.3745   23.7379 C   0  0  0  0  0  0
    5.3222    0.6801   20.8574 C   0  0  0  0  0  0
    5.6185   -0.6839   21.0747 C   0  0  0  0  0  0
    5.9749   -1.5069   19.9933 C   0  0  0  0  0  0
    5.9798   -0.9634   18.6989 C   0  0  0  0  0  0
    5.6975    0.3276   18.4530 N   0  0  0  0  0  0
    5.3803    1.1081   19.5072 C   0  0  0  0  0  0
   -4.7895    2.7571   22.3476 H   0  0  0  0  0  0
   -3.8311    3.5792   23.5771 H   0  0  0  0  0  0
   -3.5582    1.8694   23.2447 H   0  0  0  0  0  0
   -2.7483    2.4511   20.9364 H   0  0  0  0  0  0
   -3.0125    4.1594   21.2718 H   0  0  0  0  0  0
   -0.6493    4.4875   20.8255 H   0  0  0  0  0  0
    1.4171    4.6572   21.9812 H   0  0  0  0  0  0
    0.8473    3.4782   23.2030 H   0  0  0  0  0  0
   -0.4596    1.4769   20.8865 H   0  0  0  0  0  0
    0.0308    2.5732   19.5563 H   0  0  0  0  0  0
    2.5061    2.4954   19.3238 H   0  0  0  0  0  0
    3.1750    3.6531   20.5777 H   0  0  0  0  0  0
    2.4408    0.6363   20.9707 H   0  0  0  0  0  0
    0.5255    0.6528   22.7389 H   0  0  0  0  0  0
   -0.9312   -0.3197   24.8062 H   0  0  0  0  0  0
    0.6741    0.0710   27.0128 H   0  0  0  0  0  0
    5.0981    2.6363   21.5028 H   0  0  0  0  0  0
    6.8289    3.3971   22.4131 H   0  0  0  0  0  0
    8.0664    4.0178   24.2508 H   0  0  0  0  0  0
    7.1415    2.8502   25.1028 H   0  0  0  0  0  0
    9.2505    2.1099   25.6095 H   0  0  0  0  0  0
    8.8015    1.0184   24.3419 H   0  0  0  0  0  0
    9.9834    4.5015   23.4521 H   0  0  0  0  0  0
   12.1429    4.9277   22.3672 H   0  0  0  0  0  0
   13.8103    3.0932   22.1068 H   0  0  0  0  0  0
   11.1442    0.3854   24.1206 H   0  0  0  0  0  0
    5.5860   -1.1133   22.0643 H   0  0  0  0  0  0
    6.2142   -2.5471   20.1560 H   0  0  0  0  0  0
    6.2309   -1.5752   17.8447 H   0  0  0  0  0  0
    5.1766    2.1382   19.2568 H   0  0  0  0  0  0
  1  2  1  0  0  0
  1 37  1  0  0  0
  1 38  1  0  0  0
  1 39  1  0  0  0
  2  3  1  0  0  0
  2 40  1  0  0  0
  2 41  1  0  0  0
  3  4  1  0  0  0
  4  5  1  0  0  0
  4  7  1  0  0  0
  4 42  1  0  0  0
  5  6  1  0  0  0
  5 43  1  0  0  0
  5 44  1  0  0  0
  6  7  1  0  0  0
  6  8  1  0  0  0
  6  9  1  0  0  0
  7 45  1  0  0  0
  7 46  1  0  0  0
  8  9  1  0  0  0
  8 47  1  0  0  0
  8 48  1  0  0  0
  9 10  1  0  0  0
  9 49  1  0  0  0
 10 11  1  0  0  0
 10 18  1  0  0  0
 11 12  2  0  0  0
 11 13  1  0  0  0
 13 14  2  0  0  0
 13 17  1  0  0  0
 14 15  1  0  0  0
 14 50  1  0  0  0
 15 16  2  0  0  0
 15 51  1  0  0  0
 16 17  1  0  0  0
 16 52  1  0  0  0
 18 19  1  0  0  0
 18 31  1  0  0  0
 18 53  1  0  0  0
 19 20  2  0  0  0
 19 21  1  0  0  0
 21 22  1  0  0  0
 21 54  1  0  0  0
 22 23  1  0  0  0
 22 55  1  0  0  0
 22 56  1  0  0  0
 23 24  1  0  0  0
 23 57  1  0  0  0
 23 58  1  0  0  0
 24 25  2  0  0  0
 24 30  1  0  0  0
 25 26  1  0  0  0
 25 59  1  0  0  0
 26 27  2  0  0  0
 26 60  1  0  0  0
 27 28  1  0  0  0
 27 61  1  0  0  0
 28 29  1  0  0  0
 28 30  2  0  0  0
 30 62  1  0  0  0
 31 32  2  0  0  0
 31 36  1  0  0  0
 32 33  1  0  0  0
 32 63  1  0  0  0
 33 34  2  0  0  0
 33 64  1  0  0  0
 34 35  1  0  0  0
 34 65  1  0  0  0
 35 36  2  0  0  0
 36 66  1  0  0  0
M  END
> <s_m_entry_id>
2102

> <s_m_entry_name>
Compounds-withfrags-for-validation-docking.1872

> <s_m_Source_Path>
/home/rodolpho/data/melina/maestro/glide-dock_XP_5RGK_M-PRO_VALIDATION

> <s_m_Source_File>
glide-dock_XP_5RGK_M-PRO_VALIDATION_pv.maegz

> <i_m_Source_File_Index>
2102

> <CID>
ALP-POS-b0bc6a46-4

> <Potency>
99.5

> <pIC50>
4.00218

> <Source>
Postera

> <smiles>
CCOC1CC2(C1)CC2N(C(=O)c1ccco1)C(C(=O)NCCc1cccc(F)c1)c1cccnc1

> <Outcome>
Inactive

> <StandardizerResult>
Clear Stereo (ID: ClearStereo)
Wedge Clean (ID: WedgeClean)
Mesomerize (ID: Mesomerize)
Tautomerize (ID: Tautomerize)
Aromatize (ID: Aromatize)
Add Explicit Hydrogens (ID: AddExplicitH)
Neutralize (ID: Neutralize)
Clean 2D (ID: Clean2D)

> <chiral flag>
0

> <version>
0

> <i_lp_mmshare_version>
41011

> <i_f3d_flags>
0

> <s_epik_input>
W0NIM11bQ0gyXU9bQ0BIXShbQ0gyXTEpW0NIMl1bQ0BdMTJbQ0gyXVtDQEhdMk4oQyg9TyljM1tjSF1bY0hdW2NIXW8zKVtDQEhdKGM0W2NIXVtjSF1bY0hdbltjSF00KUMoPU8pW05IXVtDSDJdW0NIMl1jNVtjSF1bY0hdW2NIXWMoRilbY0hdNQ==

> <s_epik_cmdline>
J2VwaWtfcHl0aG9uJywgJy1waHQnLCAnMC41JywgJy1waCcsICc3LjQnLCAnLXRuJywgJzgnLCAnLW1hJywgJzIwMCcsICctaW1hZScsICc8aW5maWxlLm1hZT4nLCAnLW9tYWUnLCAnPG91dGZpbGUubWFlPic=

> <r_lp_tautomer_probability>
1.0

> <r_epik_Ionization_Penalty>
8.0E-4

> <r_epik_Ionization_Penalty_Charging>
0.0

> <r_epik_Ionization_Penalty_Neutral>
8.0E-4

> <r_epik_State_Penalty>
0.0

> <r_epik_Charging_Adjusted_Penalty>
0.0

> <i_epik_Tot_Q>
0

> <i_epik_Tot_abs_Q>
0

> <s_lp_Force_Field>
OPLS3

> <r_lp_Energy>
58.8632

> <b_lp_Chiralities_Consistent>
1

> <s_lp_Variant>
ligprep_COVID_compounds-withfrags-smallmolecules-forvalidation.maegz:45-1

> <i_glide_original_lignum>
195

> <s_i_glide_gridfile>
glide-grid_5RGK_M-PRO_COVID

> <i_i_glide_lignum>
195

> <r_i_docking_score>
-3.87067847276954

> <r_i_glide_ligand_efficiency>
-0.107518846465821

> <r_i_glide_ligand_efficiency_sa>
-0.355019408491138

> <r_i_glide_ligand_efficiency_ln>
-0.844477469110954

> <r_glide_XP_GScore>
-3.87067847276954

> <r_i_glide_gscore>
-3.87067847276954

> <r_i_glide_evdw>
-32.6529922485352

> <r_i_glide_ecoul>
-10.1403532028198

> <r_i_glide_energy>
-42.793345451355

> <r_i_glide_einternal>
14.0611181259155

> <r_i_glide_emodel>
-51.5180510107143

> <r_glide_XP_HBond>
-0.9975

> <i_i_glide_confnum>
3

> <i_i_glide_posenum>
20

> <r_i_glide_eff_state_penalty>
0.0

> <i_glide_XP_PoseRank>
1

> <MW>
491.22

> <cLogP>
4.31

> <TPSA>
84.67

> <Rotatable Bonds>
10

> <Fraction sp3>
0.39

> <HBA>
5

> <HBD>
1

> <s_epik_Chemistry_Notes>


> <Structure ID>


> <Submission Fragments>


$$$$
ligprep_COVID_compounds-withfrags-smallmolecules-forvalidation.maegz:6
                    3D
 Structure written by MMmdl.
 56 59  0  0  1  0            999 V2000
    6.1437   -1.5559   22.0540 C   0  0  0  0  0  0
    6.1788   -0.3839   23.0760 C   0  0  1  0  0  0
    7.5666   -0.2597   23.7565 C   0  0  0  0  0  0
    8.2767   -1.4175   24.1199 C   0  0  0  0  0  0
    9.5311   -1.3628   24.7073 C   0  0  0  0  0  0
   10.1121   -0.1336   24.9611 C   0  0  0  0  0  0
    9.4344    1.0414   24.6504 C   0  0  0  0  0  0
   10.0947    2.2041   24.9682 O   0  0  0  0  0  0
    8.1428    1.0085   24.0588 C   0  0  0  0  0  0
    7.4008    2.3027   23.7756 C   0  0  0  0  0  0
    7.9099    3.4147   23.9323 O   0  0  0  0  0  0
    6.0077    2.1288   23.3265 C   0  0  0  0  0  0
    5.7939    0.9548   22.3542 C   0  0  2  0  0  0
    4.3780    0.9707   21.6659 C   0  0  1  0  0  0
    3.6454    2.3393   21.7513 C   0  0  1  0  0  0
    2.3273    2.4340   20.9310 C   0  0  1  0  0  0
    1.3055    1.3869   21.1786 N   0  0  0  0  0  0
    1.0125    1.2363   22.6029 C   0  0  0  0  0  0
    0.0416    1.5228   20.4512 C   0  0  0  0  0  0
    1.8395    3.8901   21.0325 C   0  0  0  0  0  0
    1.2803    4.2390   19.9202 O   0  5  0  0  0  0
    2.0172    4.7092   22.1154 C   0  0  0  0  0  0
    1.5413    6.0933   22.0788 C   0  0  0  0  0  0
    1.7332    6.7537   20.9311 N   0  0  0  0  0  0
    1.0175    6.6440   23.0463 O   0  0  0  0  0  0
    2.6827    4.1602   23.3384 C   0  0  0  0  0  0
    2.5358    4.7063   24.4376 O   0  0  0  0  0  0
    3.5475    2.8515   23.2263 C   0  0  2  0  0  0
    5.0157    2.9759   23.7194 C   0  0  0  0  0  0
    5.1889    3.9648   24.6493 O   0  0  0  0  0  0
    2.9231    1.8990   24.0746 O   0  0  0  0  0  0
    4.4921    0.5436   20.3170 O   0  0  0  0  0  0
    5.1941   -0.7122   24.0431 O   0  0  0  0  0  0
    6.8953   -1.4238   21.2748 H   0  0  0  0  0  0
    5.1771   -1.6448   21.5591 H   0  0  0  0  0  0
    6.3136   -2.5292   22.5128 H   0  0  0  0  0  0
    7.8588   -2.3972   23.9521 H   0  0  0  0  0  0
   10.0510   -2.2736   24.9647 H   0  0  0  0  0  0
   11.0917   -0.0975   25.4163 H   0  0  0  0  0  0
    9.5908    2.9910   24.7496 H   0  0  0  0  0  0
    6.5263    1.1209   21.5587 H   0  0  0  0  0  0
    3.7315    0.2306   22.1381 H   0  0  0  0  0  0
    4.3151    3.0383   21.2397 H   0  0  0  0  0  0
    2.6766    2.2885   19.9050 H   0  0  0  0  0  0
    1.9206    1.0171   23.1662 H   0  0  0  0  0  0
    0.3233    0.4077   22.7705 H   0  0  0  0  0  0
    0.5648    2.1405   23.0182 H   0  0  0  0  0  0
    0.2081    1.4213   19.3781 H   0  0  0  0  0  0
   -0.4176    2.4971   20.6271 H   0  0  0  0  0  0
   -0.6807    0.7625   20.7357 H   0  0  0  0  0  0
    2.1450    6.2833   20.1389 H   0  0  0  0  0  0
    1.4434    7.7169   20.8471 H   0  0  0  0  0  0
    5.3762    4.7952   24.2031 H   0  0  0  0  0  0
    2.0628    1.6849   23.7061 H   0  0  0  0  0  0
    5.3979    0.6793   20.0295 H   0  0  0  0  0  0
    4.8122   -1.5612   23.8077 H   0  0  0  0  0  0
  1  2  1  0  0  0
  1 34  1  0  0  0
  1 35  1  0  0  0
  1 36  1  0  0  0
  2  3  1  0  0  0
  2 33  1  0  0  0
  2 13  1  0  0  0
  3  4  2  0  0  0
  3  9  1  0  0  0
  4  5  1  0  0  0
  4 37  1  0  0  0
  5  6  2  0  0  0
  5 38  1  0  0  0
  6  7  1  0  0  0
  6 39  1  0  0  0
  7  8  1  0  0  0
  7  9  2  0  0  0
  8 40  1  0  0  0
  9 10  1  0  0  0
 10 11  2  0  0  0
 10 12  1  0  0  0
 12 13  1  0  0  0
 12 29  2  0  0  0
 13 14  1  0  0  0
 13 41  1  0  0  0
 14 15  1  0  0  0
 14 32  1  0  0  0
 14 42  1  0  0  0
 15 16  1  0  0  0
 15 28  1  0  0  0
 15 43  1  0  0  0
 16 17  1  0  0  0
 16 20  1  0  0  0
 16 44  1  0  0  0
 17 18  1  0  0  0
 17 19  1  0  0  0
 18 45  1  0  0  0
 18 46  1  0  0  0
 18 47  1  0  0  0
 19 48  1  0  0  0
 19 49  1  0  0  0
 19 50  1  0  0  0
 20 21  1  0  0  0
 20 22  2  0  0  0
 22 23  1  0  0  0
 22 26  1  0  0  0
 23 24  1  0  0  0
 23 25  2  0  0  0
 24 51  1  0  0  0
 24 52  1  0  0  0
 26 27  2  0  0  0
 26 28  1  0  0  0
 28 29  1  0  0  0
 28 31  1  0  0  0
 29 30  1  0  0  0
 30 53  1  0  0  0
 31 54  1  0  0  0
 32 55  1  0  0  0
 33 56  1  0  0  0
M  CHG  1  21  -1
M  END
> <s_m_entry_id>
2109

> <s_m_entry_name>
Compounds-withfrags-for-validation-docking.1911

> <s_m_Source_Path>
/home/rodolpho/data/melina/maestro/glide-dock_XP_5RGK_M-PRO_VALIDATION

> <s_m_Source_File>
glide-dock_XP_5RGK_M-PRO_VALIDATION_pv.maegz

> <i_m_Source_File_Index>
2109

> <CID>
Oxitetracyclin

> <Potency>
15.15

> <pIC50>
4.81959

> <Source>
https://doi.org/10.1101/2020.03.23.004580

> <smiles>
C(C1(C2=C(C(=C(C(O[H])=C2C(O[H])=C2C1(C(C1(C(N(C([H])([H])[H])C([H])([H])[H])([H])C(=O)C(=C(N([H])[H])O[H])C(=O)C1(C2=O)O[H])[H])(O[H])[H])[H])[H])[H])[H])O[H])([H])([H])[H]

> <Outcome>
Inactive

> <StandardizerResult>
Clear Stereo (ID: ClearStereo)
Wedge Clean (ID: WedgeClean)
Mesomerize (ID: Mesomerize)
Tautomerize (ID: Tautomerize)
Aromatize (ID: Aromatize)
Add Explicit Hydrogens (ID: AddExplicitH)
Neutralize (ID: Neutralize)
Clean 2D (ID: Clean2D)

> <chiral flag>
0

> <version>
0

> <i_lp_mmshare_version>
41011

> <i_f3d_flags>
0

> <s_epik_input>
W09IXWMxW2NIXVtjSF1bY0hdYyhbQ0BAXTIoW0NIM10pW09IXSljMUMoPU8pQyg9QzNbT0hdKVtDQEBIXTJbQ0BIXShbT0hdKVtDQEhdKFtDQEBdMzRbT0hdKVtDQEBIXShOKFtDSDNdKVtDSDNdKUMoPU8pW0NASF0oQzQ9TylDKD1PKVtOSDJd

> <s_epik_cmdline>
J2VwaWtfcHl0aG9uJywgJy1waHQnLCAnMC41JywgJy1waCcsICc3LjQnLCAnLXRuJywgJzgnLCAnLW1hJywgJzIwMCcsICctaW1hZScsICc8aW5maWxlLm1hZT4nLCAnLW9tYWUnLCAnPG91dGZpbGUubWFlPic=

> <r_epik_Ionization_Penalty>
0.3646

> <r_epik_Ionization_Penalty_Charging>
0.0013

> <r_epik_Ionization_Penalty_Neutral>
0.3633

> <r_epik_State_Penalty>
0.3215

> <r_epik_Charging_Adjusted_Penalty>
0.322822

> <i_epik_Tot_Q>
-1

> <i_epik_Tot_abs_Q>
1

> <s_lp_Force_Field>
OPLS3

> <r_lp_Energy>
60.689

> <b_lp_Chiralities_Consistent>
1

> <s_lp_Variant>
ligprep_COVID_compounds-withfrags-smallmolecules-forvalidation.maegz:6-6

> <i_glide_original_lignum>
58

> <s_i_glide_gridfile>
glide-grid_5RGK_M-PRO_COVID

> <i_i_glide_lignum>
58

> <r_i_docking_score>
-3.86837576461782

> <r_i_glide_ligand_efficiency>
-0.117223508018722

> <r_i_glide_ligand_efficiency_sa>
-0.375998425814365

> <r_i_glide_ligand_efficiency_ln>
-0.860306740673244

> <r_glide_XP_GScore>
-4.18987276461782

> <r_i_glide_gscore>
-4.18987276461782

> <r_i_glide_evdw>
-14.9947605133057

> <r_i_glide_ecoul>
-11.6475973129272

> <r_i_glide_energy>
-26.6423578262329

> <r_i_glide_einternal>
7.31076097488403

> <r_i_glide_emodel>
-28.6533785588044

> <r_glide_XP_HBond>
-1.50771501864775

> <i_i_glide_confnum>
1

> <i_i_glide_posenum>
58

> <r_i_glide_eff_state_penalty>
0.321497

> <i_glide_XP_PoseRank>
1

> <r_lp_tautomer_probability>


> <s_epik_Chemistry_Notes>


> <MW>


> <cLogP>


> <TPSA>


> <Rotatable Bonds>


> <Fraction sp3>


> <HBA>


> <HBD>


> <Structure ID>


> <Submission Fragments>


$$$$
ligprep_COVID_compounds-withfrags-smallmolecules-forvalidation.maegz:6
                    3D
 Structure written by MMmdl.
 57 60  0  0  1  0            999 V2000
    6.3436   -5.7585   28.7224 C   0  0  0  0  0  0
    5.9526   -5.5238   27.2493 C   0  0  2  0  0  0
    7.1572   -4.9221   26.5159 C   0  0  0  0  0  0
    8.1791   -5.7638   26.0201 C   0  0  0  0  0  0
    9.2939   -5.2430   25.3449 C   0  0  0  0  0  0
    9.4126   -3.8583   25.1706 C   0  0  0  0  0  0
    8.4368   -2.9923   25.6979 C   0  0  0  0  0  0
    8.6316   -1.6489   25.5215 O   0  0  0  0  0  0
    7.3025   -3.5163   26.3850 C   0  0  0  0  0  0
    6.2751   -2.6068   26.9715 C   0  0  0  0  0  0
    6.5861   -1.4653   27.3165 O   0  0  0  0  0  0
    4.8860   -3.1242   27.1352 C   0  0  0  0  0  0
    4.6843   -4.6402   27.0294 C   0  0  2  0  0  0
    3.3914   -5.0971   27.7694 C   0  0  2  0  0  0
    2.2157   -4.2466   27.2550 C   0  0  1  0  0  0
    0.7934   -4.7940   27.5018 C   0  0  1  0  0  0
    0.5156   -4.9968   28.9636 N   0  3  0  0  0  0
    0.3534   -6.4236   29.3272 C   0  0  0  0  0  0
   -0.5534   -4.1648   29.5779 C   0  0  0  0  0  0
   -0.2630   -3.9467   26.7562 C   0  0  0  0  0  0
   -1.2679   -4.6897   26.6167 O   0  5  0  0  0  0
    0.0393   -2.6366   26.3149 C   0  0  0  0  0  0
   -0.9530   -1.8469   25.5435 C   0  0  0  0  0  0
   -2.1145   -2.4581   25.3184 N   0  0  0  0  0  0
   -0.8028   -0.7096   25.1043 O   0  0  0  0  0  0
    1.3895   -2.0157   26.5714 C   0  0  0  0  0  0
    1.7603   -0.9751   26.0242 O   0  0  0  0  0  0
    2.3638   -2.7321   27.5489 C   0  0  2  0  0  0
    3.8409   -2.2944   27.4100 C   0  0  0  0  0  0
    3.9769   -0.9800   27.6707 O   0  0  0  0  0  0
    1.9693   -2.4450   28.8797 O   0  0  0  0  0  0
    3.4650   -4.9514   29.1804 O   0  0  0  0  0  0
    5.5750   -6.7950   26.7508 O   0  0  0  0  0  0
    6.4923   -4.8194   29.2531 H   0  0  0  0  0  0
    7.2768   -6.3219   28.7889 H   0  0  0  0  0  0
    5.6029   -6.3453   29.2647 H   0  0  0  0  0  0
    8.1332   -6.8296   26.1634 H   0  0  0  0  0  0
   10.0594   -5.9055   24.9665 H   0  0  0  0  0  0
   10.2731   -3.4610   24.6507 H   0  0  0  0  0  0
    7.9712   -1.1335   25.9688 H   0  0  0  0  0  0
    4.4796   -4.7575   25.9623 H   0  0  0  0  0  0
    3.2015   -6.1480   27.5518 H   0  0  0  0  0  0
    2.3078   -4.3458   26.1716 H   0  0  0  0  0  0
    0.8066   -5.7843   27.0376 H   0  0  0  0  0  0
   -0.5508   -6.8359   28.8785 H   0  0  0  0  0  0
    0.2812   -6.5421   30.4090 H   0  0  0  0  0  0
    1.2068   -7.0140   28.9922 H   0  0  0  0  0  0
   -1.5460   -4.5003   29.2760 H   0  0  0  0  0  0
   -0.4605   -3.1095   29.3224 H   0  0  0  0  0  0
   -0.5012   -4.2350   30.6641 H   0  0  0  0  0  0
   -2.2030   -3.4052   25.6894 H   0  0  0  0  0  0
   -2.8543   -2.0015   24.8093 H   0  0  0  0  0  0
    4.8929   -0.7622   27.5458 H   0  0  0  0  0  0
    2.6726   -2.7280   29.4476 H   0  0  0  0  0  0
    4.2538   -5.3794   29.4877 H   0  0  0  0  0  0
    6.2707   -7.4296   26.9344 H   0  0  0  0  0  0
    1.3798   -4.6981   29.3982 H   0  0  0  0  0  0
  1  2  1  0  0  0
  1 34  1  0  0  0
  1 35  1  0  0  0
  1 36  1  0  0  0
  2  3  1  0  0  0
  2 33  1  0  0  0
  2 13  1  0  0  0
  3  4  2  0  0  0
  3  9  1  0  0  0
  4  5  1  0  0  0
  4 37  1  0  0  0
  5  6  2  0  0  0
  5 38  1  0  0  0
  6  7  1  0  0  0
  6 39  1  0  0  0
  7  8  1  0  0  0
  7  9  2  0  0  0
  8 40  1  0  0  0
  9 10  1  0  0  0
 10 11  2  0  0  0
 10 12  1  0  0  0
 12 13  1  0  0  0
 12 29  2  0  0  0
 13 14  1  0  0  0
 13 41  1  0  0  0
 14 15  1  0  0  0
 14 32  1  0  0  0
 14 42  1  0  0  0
 15 16  1  0  0  0
 15 28  1  0  0  0
 15 43  1  0  0  0
 16 17  1  0  0  0
 16 20  1  0  0  0
 16 44  1  0  0  0
 17 18  1  0  0  0
 17 19  1  0  0  0
 17 57  1  0  0  0
 18 45  1  0  0  0
 18 46  1  0  0  0
 18 47  1  0  0  0
 19 48  1  0  0  0
 19 49  1  0  0  0
 19 50  1  0  0  0
 20 21  1  0  0  0
 20 22  2  0  0  0
 22 23  1  0  0  0
 22 26  1  0  0  0
 23 24  1  0  0  0
 23 25  2  0  0  0
 24 51  1  0  0  0
 24 52  1  0  0  0
 26 27  2  0  0  0
 26 28  1  0  0  0
 28 29  1  0  0  0
 28 31  1  0  0  0
 29 30  1  0  0  0
 30 53  1  0  0  0
 31 54  1  0  0  0
 32 55  1  0  0  0
 33 56  1  0  0  0
M  CHG  2  17   1  21  -1
M  END
> <s_m_entry_id>
2125

> <s_m_entry_name>
Compounds-withfrags-for-validation-docking.1911

> <s_m_Source_Path>
/home/rodolpho/data/melina/maestro/glide-dock_XP_5RGK_M-PRO_VALIDATION

> <s_m_Source_File>
glide-dock_XP_5RGK_M-PRO_VALIDATION_pv.maegz

> <i_m_Source_File_Index>
2125

> <CID>
Oxitetracyclin

> <Potency>
15.15

> <pIC50>
4.81959

> <Source>
https://doi.org/10.1101/2020.03.23.004580

> <smiles>
C(C1(C2=C(C(=C(C(O[H])=C2C(O[H])=C2C1(C(C1(C(N(C([H])([H])[H])C([H])([H])[H])([H])C(=O)C(=C(N([H])[H])O[H])C(=O)C1(C2=O)O[H])[H])(O[H])[H])[H])[H])[H])[H])O[H])([H])([H])[H]

> <Outcome>
Inactive

> <StandardizerResult>
Clear Stereo (ID: ClearStereo)
Wedge Clean (ID: WedgeClean)
Mesomerize (ID: Mesomerize)
Tautomerize (ID: Tautomerize)
Aromatize (ID: Aromatize)
Add Explicit Hydrogens (ID: AddExplicitH)
Neutralize (ID: Neutralize)
Clean 2D (ID: Clean2D)

> <chiral flag>
0

> <version>
0

> <i_lp_mmshare_version>
41011

> <i_f3d_flags>
0

> <s_epik_input>
W09IXWMxW2NIXVtjSF1bY0hdYyhbQ0BdMihbQ0gzXSlbT0hdKWMxQyg9TylDKD1DM1tPSF0pW0NAQEhdMltDQEBIXShbT0hdKVtDQEhdKFtDQEBdMzRbT0hdKVtDQEBIXShOKFtDSDNdKVtDSDNdKUMoPU8pW0NASF0oQzQ9TylDKD1PKVtOSDJd

> <s_epik_cmdline>
J2VwaWtfcHl0aG9uJywgJy1waHQnLCAnMC41JywgJy1waCcsICc3LjQnLCAnLXRuJywgJzgnLCAnLW1hJywgJzIwMCcsICctaW1hZScsICc8aW5maWxlLm1hZT4nLCAnLW9tYWUnLCAnPG91dGZpbGUubWFlPic=

> <r_epik_Ionization_Penalty>
0.6144

> <r_epik_Ionization_Penalty_Charging>
0.5087

> <r_epik_Ionization_Penalty_Neutral>
0.1057

> <r_epik_State_Penalty>
0.5157

> <r_epik_Charging_Adjusted_Penalty>
1.02439

> <i_epik_Tot_Q>
0

> <i_epik_Tot_abs_Q>
2

> <s_lp_Force_Field>
OPLS3

> <r_lp_Energy>
54.92

> <b_lp_Chiralities_Consistent>
1

> <s_lp_Variant>
ligprep_COVID_compounds-withfrags-smallmolecules-forvalidation.maegz:6-24

> <i_glide_original_lignum>
76

> <s_i_glide_gridfile>
glide-grid_5RGK_M-PRO_COVID

> <i_i_glide_lignum>
76

> <r_i_docking_score>
-3.85989862576743

> <r_i_glide_ligand_efficiency>
-0.116966625023255

> <r_i_glide_ligand_efficiency_sa>
-0.375174464788574

> <r_i_glide_ligand_efficiency_ln>
-0.858421468885192

> <r_glide_XP_GScore>
-4.37560562576743

> <r_i_glide_gscore>
-4.37560562576743

> <r_i_glide_evdw>
-19.5464477539062

> <r_i_glide_ecoul>
-11.7018022537231

> <r_i_glide_energy>
-31.2482500076294

> <r_i_glide_einternal>
3.22167277336121

> <r_i_glide_emodel>
-31.6779412865776

> <r_glide_XP_HBond>
-1.66

> <i_i_glide_confnum>
1

> <i_i_glide_posenum>
16

> <r_i_glide_eff_state_penalty>
0.515707

> <i_glide_XP_PoseRank>
1

> <r_lp_tautomer_probability>


> <s_epik_Chemistry_Notes>


> <MW>


> <cLogP>


> <TPSA>


> <Rotatable Bonds>


> <Fraction sp3>


> <HBA>


> <HBD>


> <Structure ID>


> <Submission Fragments>


$$$$
ligprep_COVID_compounds-withfrags-smallmolecules-forvalidation.maegz:22
                    3D
 Structure written by MMmdl.
 71 75  0  0  1  0            999 V2000
    9.5733   -4.6631   25.4562 C   0  0  0  0  0  0
    8.0866   -4.3570   25.7673 C   0  0  0  0  0  0
    7.2714   -5.6729   25.7173 C   0  0  0  0  0  0
    8.0210   -3.8239   27.2239 C   0  0  0  0  0  0
    7.5259   -3.3588   24.7221 C   0  0  0  0  0  0
    6.8294   -2.2227   25.1627 C   0  0  0  0  0  0
    6.3106   -1.3043   24.2560 C   0  0  0  0  0  0
    6.4923   -1.5070   22.8860 C   0  0  0  0  0  0
    5.9488   -0.6016   21.9503 N   0  0  0  0  0  0
    5.9769   -0.8956   20.6034 C   0  0  0  0  0  0
    6.2282   -2.0220   20.1691 O   0  0  0  0  0  0
    5.7249    0.1535   19.6324 C   0  0  0  0  0  0
    4.6688    1.0557   19.5392 C   0  0  0  0  0  0
    4.8474    1.7800   18.3599 C   0  0  0  0  0  0
    5.9748    1.2568   17.7526 C   0  0  0  0  0  0
    6.4876    0.2523   18.5078 O   0  0  0  0  0  0
    5.7206    0.7776   22.4791 C   0  0  2  0  0  0
    6.8343    1.4068   23.3753 C   0  0  0  0  0  0
    6.7108    2.5673   23.7708 O   0  0  0  0  0  0
    7.8616    0.6185   23.7461 N   0  0  0  0  0  0
    8.8618    0.9789   24.7475 C   0  0  0  0  0  0
    9.3724    2.4262   24.6064 C   0  0  0  0  0  0
   10.7094    2.5037   23.8852 C   0  0  0  0  0  0
   11.5138    1.3650   23.7705 C   0  0  0  0  0  0
   12.7431    1.4366   23.1141 C   0  0  0  0  0  0
   13.1747    2.6468   22.5708 C   0  0  0  0  0  0
   12.3775    3.7860   22.6840 C   0  0  0  0  0  0
   12.7968    4.9594   22.1592 F   0  0  0  0  0  0
   11.1474    3.7150   23.3395 C   0  0  0  0  0  0
    4.3597    0.9187   23.0944 C   0  0  0  0  0  0
    3.8072    0.2263   24.1710 C   0  0  0  0  0  0
    2.5344    0.6161   24.4556 O   0  0  0  0  0  0
    2.2322    1.5822   23.5447 C   0  0  0  0  0  0
    1.0175    2.2714   23.4523 C   0  0  0  0  0  0
    0.9080    3.2244   22.4395 C   0  0  0  0  0  0
    1.9647    3.4749   21.5622 C   0  0  0  0  0  0
    3.1748    2.7832   21.6633 C   0  0  0  0  0  0
    3.3214    1.8156   22.6725 C   0  0  0  0  0  0
    7.1743   -2.6347   22.4277 C   0  0  0  0  0  0
    7.6901   -3.5501   23.3400 C   0  0  0  0  0  0
   10.0061   -5.3430   26.1918 H   0  0  0  0  0  0
   10.1766   -3.7541   25.4611 H   0  0  0  0  0  0
    9.7037   -5.1337   24.4814 H   0  0  0  0  0  0
    7.3301   -6.1581   24.7424 H   0  0  0  0  0  0
    6.2160   -5.4940   25.9277 H   0  0  0  0  0  0
    7.6300   -6.3954   26.4520 H   0  0  0  0  0  0
    8.4286   -4.5457   27.9336 H   0  0  0  0  0  0
    6.9953   -3.6214   27.5365 H   0  0  0  0  0  0
    8.5950   -2.9042   27.3450 H   0  0  0  0  0  0
    6.6830   -2.0436   26.2174 H   0  0  0  0  0  0
    5.7714   -0.4402   24.6172 H   0  0  0  0  0  0
    3.8654    1.1792   20.2508 H   0  0  0  0  0  0
    4.2195    2.5751   17.9860 H   0  0  0  0  0  0
    6.4923    1.4735   16.8298 H   0  0  0  0  0  0
    5.7510    1.4248   21.6008 H   0  0  0  0  0  0
    7.9597   -0.2889   23.3135 H   0  0  0  0  0  0
    8.4055    0.8498   25.7297 H   0  0  0  0  0  0
    9.6972    0.2759   24.7126 H   0  0  0  0  0  0
    8.6454    3.0355   24.0668 H   0  0  0  0  0  0
    9.4687    2.8884   25.5904 H   0  0  0  0  0  0
   11.1887    0.4240   24.1909 H   0  0  0  0  0  0
   13.3609    0.5549   23.0279 H   0  0  0  0  0  0
   14.1267    2.7017   22.0635 H   0  0  0  0  0  0
   10.5373    4.6025   23.4246 H   0  0  0  0  0  0
    4.1988   -0.5478   24.8142 H   0  0  0  0  0  0
    0.2009    2.0744   24.1312 H   0  0  0  0  0  0
   -0.0130    3.7786   22.3307 H   0  0  0  0  0  0
    1.8439    4.2186   20.7879 H   0  0  0  0  0  0
    3.9789    2.9901   20.9725 H   0  0  0  0  0  0
    7.3066   -2.8014   21.3681 H   0  0  0  0  0  0
    8.2143   -4.4058   22.9444 H   0  0  0  0  0  0
  1  2  1  0  0  0
  1 41  1  0  0  0
  1 42  1  0  0  0
  1 43  1  0  0  0
  2  3  1  0  0  0
  2  4  1  0  0  0
  2  5  1  0  0  0
  3 44  1  0  0  0
  3 45  1  0  0  0
  3 46  1  0  0  0
  4 47  1  0  0  0
  4 48  1  0  0  0
  4 49  1  0  0  0
  5  6  2  0  0  0
  5 40  1  0  0  0
  6  7  1  0  0  0
  6 50  1  0  0  0
  7  8  2  0  0  0
  7 51  1  0  0  0
  8  9  1  0  0  0
  8 39  1  0  0  0
  9 10  1  0  0  0
  9 17  1  0  0  0
 10 11  2  0  0  0
 10 12  1  0  0  0
 12 13  2  0  0  0
 12 16  1  0  0  0
 13 14  1  0  0  0
 13 52  1  0  0  0
 14 15  2  0  0  0
 14 53  1  0  0  0
 15 16  1  0  0  0
 15 54  1  0  0  0
 17 18  1  0  0  0
 17 30  1  0  0  0
 17 55  1  0  0  0
 18 19  2  0  0  0
 18 20  1  0  0  0
 20 21  1  0  0  0
 20 56  1  0  0  0
 21 22  1  0  0  0
 21 57  1  0  0  0
 21 58  1  0  0  0
 22 23  1  0  0  0
 22 59  1  0  0  0
 22 60  1  0  0  0
 23 24  2  0  0  0
 23 29  1  0  0  0
 24 25  1  0  0  0
 24 61  1  0  0  0
 25 26  2  0  0  0
 25 62  1  0  0  0
 26 27  1  0  0  0
 26 63  1  0  0  0
 27 28  1  0  0  0
 27 29  2  0  0  0
 29 64  1  0  0  0
 30 31  2  0  0  0
 30 38  1  0  0  0
 31 32  1  0  0  0
 31 65  1  0  0  0
 32 33  1  0  0  0
 33 34  2  0  0  0
 33 38  1  0  0  0
 34 35  1  0  0  0
 34 66  1  0  0  0
 35 36  2  0  0  0
 35 67  1  0  0  0
 36 37  1  0  0  0
 36 68  1  0  0  0
 37 38  2  0  0  0
 37 69  1  0  0  0
 39 40  2  0  0  0
 39 70  1  0  0  0
 40 71  1  0  0  0
M  END
> <s_m_entry_id>
2142

> <s_m_entry_name>
Compounds-withfrags-for-validation-docking.1895

> <s_m_Source_Path>
/home/rodolpho/data/melina/maestro/glide-dock_XP_5RGK_M-PRO_VALIDATION

> <s_m_Source_File>
glide-dock_XP_5RGK_M-PRO_VALIDATION_pv.maegz

> <i_m_Source_File_Index>
2142

> <CID>
ALP-POS-02c6a514-19

> <Potency>
99.5

> <pIC50>
4.00218

> <Source>
Postera

> <smiles>
CC(C)(C)c1ccc(N(C(=O)c2ccco2)C(C(=O)NCCc2cccc(F)c2)c2coc3ccccc23)cc1

> <Outcome>
Inactive

> <StandardizerResult>
Clear Stereo (ID: ClearStereo)
Wedge Clean (ID: WedgeClean)
Mesomerize (ID: Mesomerize)
Tautomerize (ID: Tautomerize)
Aromatize (ID: Aromatize)
Add Explicit Hydrogens (ID: AddExplicitH)
Neutralize (ID: Neutralize)
Clean 2D (ID: Clean2D)

> <chiral flag>
0

> <version>
0

> <i_lp_mmshare_version>
41011

> <i_f3d_flags>
0

> <s_epik_input>
W0NIM11DKFtDSDNdKShbQ0gzXSljMVtjSF1bY0hdYyhbY0hdW2NIXTEpTihDKD1PKWMyW2NIXVtjSF1bY0hdbzIpW0NAQEhdKGMoW2NIXW8zKWMoYzM0KVtjSF1bY0hdW2NIXVtjSF00KUMoPU8pW05IXVtDSDJdW0NIMl1jNVtjSF1bY0hdW2NIXWMoRilbY0hdNQ==

> <s_epik_cmdline>
J2VwaWtfcHl0aG9uJywgJy1waHQnLCAnMC41JywgJy1waCcsICc3LjQnLCAnLXRuJywgJzgnLCAnLW1hJywgJzIwMCcsICctaW1hZScsICc8aW5maWxlLm1hZT4nLCAnLW9tYWUnLCAnPG91dGZpbGUubWFlPic=

> <r_lp_tautomer_probability>
1.0

> <r_epik_Ionization_Penalty>
0.0

> <r_epik_Ionization_Penalty_Charging>
0.0

> <r_epik_Ionization_Penalty_Neutral>
0.0

> <r_epik_State_Penalty>
0.0

> <r_epik_Charging_Adjusted_Penalty>
0.0

> <i_epik_Tot_Q>
0

> <i_epik_Tot_abs_Q>
0

> <s_lp_Force_Field>
OPLS3

> <r_lp_Energy>
69.5012

> <b_lp_Chiralities_Consistent>
1

> <s_lp_Variant>
ligprep_COVID_compounds-withfrags-smallmolecules-forvalidation.maegz:22-2

> <i_glide_original_lignum>
138

> <s_i_glide_gridfile>
glide-grid_5RGK_M-PRO_COVID

> <i_i_glide_lignum>
138

> <r_i_docking_score>
-3.84818431768099

> <r_i_glide_ligand_efficiency>
-0.0962046079420247

> <r_i_glide_ligand_efficiency_sa>
-0.329015130676083

> <r_i_glide_ligand_efficiency_ln>
-0.820704467952287

> <r_glide_XP_GScore>
-3.84818431768099

> <r_i_glide_gscore>
-3.84818431768099

> <r_i_glide_evdw>
-42.9186744689941

> <r_i_glide_ecoul>
-3.14249110221863

> <r_i_glide_energy>
-46.0611655712128

> <r_i_glide_einternal>
13.0547847747803

> <r_i_glide_emodel>
-62.5793776398029

> <r_glide_XP_HBond>
-0.296180546664713

> <i_i_glide_confnum>
1

> <i_i_glide_posenum>
2

> <r_i_glide_eff_state_penalty>
0.0

> <i_glide_XP_PoseRank>
1

> <MW>
538.23

> <cLogP>
7.21

> <TPSA>
75.69

> <Rotatable Bonds>
8

> <Fraction sp3>
0.21

> <HBA>
4

> <HBD>
1

> <s_epik_Chemistry_Notes>


> <Structure ID>


> <Submission Fragments>


$$$$
ligprep_COVID_compounds-withfrags-smallmolecules-forvalidation.maegz:47
                    3D
 Structure written by MMmdl.
 76 79  0  0  1  0            999 V2000
   -0.4117    5.1584   24.4489 C   0  0  0  0  0  0
    0.4229    4.3411   23.4465 C   0  0  1  0  0  0
    1.8450    4.0705   23.9840 C   0  0  0  0  0  0
    2.7011    3.2174   23.0176 C   0  0  1  0  0  0
    4.1040    2.9065   23.5869 C   0  0  0  0  0  0
    4.6450    1.5121   23.2011 C   0  0  0  0  0  0
    6.1181    1.4195   23.2141 N   0  0  0  0  0  0
    6.9462    2.3459   23.8019 C   0  0  0  0  0  0
    6.5467    3.4528   24.1696 O   0  0  0  0  0  0
    8.3558    2.0530   23.9622 C   0  0  0  0  0  0
    9.0581    0.9336   24.4118 C   0  0  0  0  0  0
   10.4043    1.2919   24.4889 C   0  0  0  0  0  0
   10.4674    2.6306   24.1507 C   0  0  0  0  0  0
    9.2252    3.0981   23.8665 O   0  0  0  0  0  0
    6.6319    0.2429   22.4411 C   0  0  1  0  0  0
    6.4726   -1.0855   23.2356 C   0  0  0  0  0  0
    6.7724   -2.1619   22.7171 O   0  0  0  0  0  0
    6.0342   -0.9664   24.5002 N   0  0  0  0  0  0
    5.5892   -2.0857   25.3259 C   0  0  0  0  0  0
    6.5819   -2.4500   26.4477 C   0  0  0  0  0  0
    7.7818   -3.2296   25.9319 C   0  0  0  0  0  0
    8.1374   -4.4471   26.5229 C   0  0  0  0  0  0
    9.2413   -5.1602   26.0535 C   0  0  0  0  0  0
    9.9963   -4.6585   24.9929 C   0  0  0  0  0  0
    9.6471   -3.4441   24.4009 C   0  0  0  0  0  0
   10.3791   -2.9575   23.3734 F   0  0  0  0  0  0
    8.5427   -2.7310   24.8691 C   0  0  0  0  0  0
    6.1378    0.2205   20.9905 C   0  0  0  0  0  0
    5.3161    1.2493   20.4972 C   0  0  0  0  0  0
    4.8914    1.2442   19.1683 C   0  0  0  0  0  0
    5.3138    0.2056   18.3411 C   0  0  0  0  0  0
    6.1226   -0.7930   18.7713 N   0  0  0  0  0  0
    6.5219   -0.7710   20.0684 C   0  0  0  0  0  0
    1.9578    1.9110   22.6375 C   0  0  0  0  0  0
    0.5175    2.1154   22.0814 C   0  0  0  0  0  0
    0.5791    2.7705   20.6791 C   0  0  0  0  0  0
   -0.1765    0.7350   22.0225 C   0  0  0  0  0  0
   -0.2872    3.0212   23.0597 C   0  0  0  0  0  0
   -0.5517    4.6186   25.3864 H   0  0  0  0  0  0
   -1.4001    5.3850   24.0476 H   0  0  0  0  0  0
    0.0705    6.1082   24.6834 H   0  0  0  0  0  0
    0.5180    4.9521   22.5482 H   0  0  0  0  0  0
    2.3391    5.0238   24.1755 H   0  0  0  0  0  0
    1.7777    3.5644   24.9489 H   0  0  0  0  0  0
    2.8495    3.7947   22.1040 H   0  0  0  0  0  0
    4.8040    3.6725   23.2527 H   0  0  0  0  0  0
    4.0776    2.9942   24.6737 H   0  0  0  0  0  0
    4.1994    0.7494   23.8382 H   0  0  0  0  0  0
    4.2918    1.2604   22.2004 H   0  0  0  0  0  0
    8.6570   -0.0355   24.6612 H   0  0  0  0  0  0
   11.2277    0.6586   24.7840 H   0  0  0  0  0  0
   11.2740    3.3465   24.0904 H   0  0  0  0  0  0
    7.7117    0.3751   22.3499 H   0  0  0  0  0  0
    6.0125   -0.0517   24.9272 H   0  0  0  0  0  0
    4.6303   -1.8091   25.7661 H   0  0  0  0  0  0
    5.3885   -2.9572   24.6983 H   0  0  0  0  0  0
    6.9366   -1.5484   26.9499 H   0  0  0  0  0  0
    6.0788   -3.0362   27.2189 H   0  0  0  0  0  0
    7.5599   -4.8422   27.3465 H   0  0  0  0  0  0
    9.5117   -6.1001   26.5118 H   0  0  0  0  0  0
   10.8514   -5.2101   24.6307 H   0  0  0  0  0  0
    8.2802   -1.7908   24.4056 H   0  0  0  0  0  0
    5.0017    2.0596   21.1386 H   0  0  0  0  0  0
    4.2536    2.0287   18.7892 H   0  0  0  0  0  0
    5.0081    0.1665   17.3060 H   0  0  0  0  0  0
    7.1751   -1.5834   20.3494 H   0  0  0  0  0  0
    2.5525    1.3498   21.9143 H   0  0  0  0  0  0
    1.9117    1.2784   23.5266 H   0  0  0  0  0  0
   -0.4208    2.9120   20.2670 H   0  0  0  0  0  0
    1.1294    2.1441   19.9759 H   0  0  0  0  0  0
    1.0632    3.7461   20.6841 H   0  0  0  0  0  0
   -1.1989    0.8205   21.6516 H   0  0  0  0  0  0
   -0.2259    0.2586   23.0030 H   0  0  0  0  0  0
    0.3523    0.0520   21.3563 H   0  0  0  0  0  0
   -0.4913    2.4657   23.9774 H   0  0  0  0  0  0
   -1.2666    3.2456   22.6325 H   0  0  0  0  0  0
  1  2  1  0  0  0
  1 39  1  0  0  0
  1 40  1  0  0  0
  1 41  1  0  0  0
  2  3  1  0  0  0
  2 38  1  0  0  0
  2 42  1  0  0  0
  3  4  1  0  0  0
  3 43  1  0  0  0
  3 44  1  0  0  0
  4  5  1  0  0  0
  4 34  1  0  0  0
  4 45  1  0  0  0
  5  6  1  0  0  0
  5 46  1  0  0  0
  5 47  1  0  0  0
  6  7  1  0  0  0
  6 48  1  0  0  0
  6 49  1  0  0  0
  7  8  1  0  0  0
  7 15  1  0  0  0
  8  9  2  0  0  0
  8 10  1  0  0  0
 10 11  2  0  0  0
 10 14  1  0  0  0
 11 12  1  0  0  0
 11 50  1  0  0  0
 12 13  2  0  0  0
 12 51  1  0  0  0
 13 14  1  0  0  0
 13 52  1  0  0  0
 15 16  1  0  0  0
 15 28  1  0  0  0
 15 53  1  0  0  0
 16 17  2  0  0  0
 16 18  1  0  0  0
 18 19  1  0  0  0
 18 54  1  0  0  0
 19 20  1  0  0  0
 19 55  1  0  0  0
 19 56  1  0  0  0
 20 21  1  0  0  0
 20 57  1  0  0  0
 20 58  1  0  0  0
 21 22  2  0  0  0
 21 27  1  0  0  0
 22 23  1  0  0  0
 22 59  1  0  0  0
 23 24  2  0  0  0
 23 60  1  0  0  0
 24 25  1  0  0  0
 24 61  1  0  0  0
 25 26  1  0  0  0
 25 27  2  0  0  0
 27 62  1  0  0  0
 28 29  2  0  0  0
 28 33  1  0  0  0
 29 30  1  0  0  0
 29 63  1  0  0  0
 30 31  2  0  0  0
 30 64  1  0  0  0
 31 32  1  0  0  0
 31 65  1  0  0  0
 32 33  2  0  0  0
 33 66  1  0  0  0
 34 35  1  0  0  0
 34 67  1  0  0  0
 34 68  1  0  0  0
 35 36  1  0  0  0
 35 37  1  0  0  0
 35 38  1  0  0  0
 36 69  1  0  0  0
 36 70  1  0  0  0
 36 71  1  0  0  0
 37 72  1  0  0  0
 37 73  1  0  0  0
 37 74  1  0  0  0
 38 75  1  0  0  0
 38 76  1  0  0  0
M  END
> <s_m_entry_id>
2155

> <s_m_entry_name>
Compounds-withfrags-for-validation-docking.1870

> <s_m_Source_Path>
/home/rodolpho/data/melina/maestro/glide-dock_XP_5RGK_M-PRO_VALIDATION

> <s_m_Source_File>
glide-dock_XP_5RGK_M-PRO_VALIDATION_pv.maegz

> <i_m_Source_File_Index>
2155

> <CID>
ALP-POS-b0bc6a46-1

> <Potency>
99.5

> <pIC50>
4.00218

> <Source>
Postera

> <smiles>
CC1CC(CCN(C(=O)c2ccco2)C(C(=O)NCCc2cccc(F)c2)c2cccnc2)CC(C)(C)C1

> <Outcome>
Inactive

> <StandardizerResult>
Clear Stereo (ID: ClearStereo)
Wedge Clean (ID: WedgeClean)
Mesomerize (ID: Mesomerize)
Tautomerize (ID: Tautomerize)
Aromatize (ID: Aromatize)
Add Explicit Hydrogens (ID: AddExplicitH)
Neutralize (ID: Neutralize)
Clean 2D (ID: Clean2D)

> <chiral flag>
0

> <version>
0

> <i_lp_mmshare_version>
41011

> <i_f3d_flags>
0

> <s_epik_input>
W0NIM11bQ0BIXShbQ0gyXTEpW0NIMl1bQ0BIXShbQ0gyXUMxKFtDSDNdKVtDSDNdKVtDSDJdW0NIMl1OKEMoPU8pYzJbY0hdW2NIXVtjSF1vMilbQ0BIXShjM1tjSF1bY0hdW2NIXW5bY0hdMylDKD1PKVtOSF1bQ0gyXVtDSDJdYzRbY0hdW2NIXVtjSF1jKEYpW2NIXTQ=

> <s_epik_cmdline>
J2VwaWtfcHl0aG9uJywgJy1waHQnLCAnMC41JywgJy1waCcsICc3LjQnLCAnLXRuJywgJzgnLCAnLW1hJywgJzIwMCcsICctaW1hZScsICc8aW5maWxlLm1hZT4nLCAnLW9tYWUnLCAnPG91dGZpbGUubWFlPic=

> <r_lp_tautomer_probability>
1.0

> <r_epik_Ionization_Penalty>
8.0E-4

> <r_epik_Ionization_Penalty_Charging>
0.0

> <r_epik_Ionization_Penalty_Neutral>
8.0E-4

> <r_epik_State_Penalty>
0.0

> <r_epik_Charging_Adjusted_Penalty>
0.0

> <i_epik_Tot_Q>
0

> <i_epik_Tot_abs_Q>
0

> <s_lp_Force_Field>
OPLS3

> <r_lp_Energy>
56.2635

> <b_lp_Chiralities_Consistent>
1

> <s_lp_Variant>
ligprep_COVID_compounds-withfrags-smallmolecules-forvalidation.maegz:47-2

> <i_glide_original_lignum>
206

> <s_i_glide_gridfile>
glide-grid_5RGK_M-PRO_COVID

> <i_i_glide_lignum>
206

> <r_i_docking_score>
-3.84098158378307

> <r_i_glide_ligand_efficiency>
-0.101078462731134

> <r_i_glide_ligand_efficiency_sa>
-0.339823305447071

> <r_i_glide_ligand_efficiency_ln>
-0.828228619694192

> <r_glide_XP_GScore>
-3.84098158378307

> <r_i_glide_gscore>
-3.84098158378307

> <r_i_glide_evdw>
-40.3381538391113

> <r_i_glide_ecoul>
-6.32337617874146

> <r_i_glide_energy>
-46.6615300178528

> <r_i_glide_einternal>
4.10267254112955

> <r_i_glide_emodel>
-62.6469497680664

> <r_glide_XP_HBond>
-0.071049151196701

> <i_i_glide_confnum>
3

> <i_i_glide_posenum>
24

> <r_i_glide_eff_state_penalty>
0.0

> <i_glide_XP_PoseRank>
1

> <MW>
519.29

> <cLogP>
6.21

> <TPSA>
75.44

> <Rotatable Bonds>
10

> <Fraction sp3>
0.45

> <HBA>
4

> <HBD>
1

> <s_epik_Chemistry_Notes>


> <Structure ID>


> <Submission Fragments>


$$$$
ligprep_COVID_compounds-withfrags-smallmolecules-forvalidation.maegz:6
                    3D
 Structure written by MMmdl.
 56 59  0  0  1  0            999 V2000
    7.4193   -0.1172   24.2379 C   0  0  0  0  0  0
    6.1472   -1.0068   24.1538 C   0  0  2  0  0  0
    4.9194   -0.1419   23.7918 C   0  0  0  0  0  0
    4.9771    0.6758   22.6495 C   0  0  0  0  0  0
    3.9229    1.4918   22.2693 C   0  0  0  0  0  0
    2.7649    1.5035   23.0262 C   0  0  0  0  0  0
    2.6531    0.6924   24.1519 C   0  0  0  0  0  0
    1.4497    0.7599   24.8127 O   0  0  0  0  0  0
    3.7201   -0.1566   24.5523 C   0  0  0  0  0  0
    3.5743   -1.0342   25.7735 C   0  0  0  0  0  0
    2.6860   -0.8547   26.6101 O   0  0  0  0  0  0
    4.5387   -2.1482   25.8591 C   0  0  0  0  0  0
    5.9930   -1.7691   25.5255 C   0  0  1  0  0  0
    7.0128   -2.9450   25.7764 C   0  0  2  0  0  0
    6.4039   -4.3852   25.7957 C   0  0  2  0  0  0
    6.2109   -4.9572   24.3433 C   0  0  1  0  0  0
    7.4855   -5.4832   23.7971 N   0  0  0  0  0  0
    8.6616   -4.6735   24.1158 C   0  0  0  0  0  0
    7.4548   -5.8024   22.3713 C   0  0  0  0  0  0
    4.9781   -5.8949   24.2185 C   0  0  0  0  0  0
    4.6957   -6.0817   22.9707 O   0  5  0  0  0  0
    4.2176   -6.3767   25.2479 C   0  0  0  0  0  0
    3.0816   -7.2783   25.0168 C   0  0  0  0  0  0
    2.2538   -7.4746   26.0513 N   0  0  0  0  0  0
    2.8661   -7.8282   23.9375 O   0  0  0  0  0  0
    4.5690   -5.9318   26.6119 C   0  0  0  0  0  0
    4.3543   -6.6457   27.5978 O   0  0  0  0  0  0
    5.1619   -4.4904   26.7309 C   0  0  2  0  0  0
    4.1718   -3.3547   26.3789 C   0  0  0  0  0  0
    2.9016   -3.6620   26.7899 O   0  0  0  0  0  0
    5.5616   -4.3003   28.0845 O   0  0  0  0  0  0
    7.7799   -2.7024   26.9445 O   0  0  0  0  0  0
    6.4230   -1.8955   23.0873 O   0  0  0  0  0  0
    7.2911    0.6853   24.9656 H   0  0  0  0  0  0
    7.6745    0.3528   23.2876 H   0  0  0  0  0  0
    8.2981   -0.6862   24.5439 H   0  0  0  0  0  0
    5.8642    0.6825   22.0340 H   0  0  0  0  0  0
    4.0047    2.1116   21.3886 H   0  0  0  0  0  0
    1.9449    2.1403   22.7261 H   0  0  0  0  0  0
    0.8510    1.4061   24.4324 H   0  0  0  0  0  0
    6.2069   -1.0090   26.2827 H   0  0  0  0  0  0
    7.7849   -2.9260   25.0070 H   0  0  0  0  0  0
    7.1583   -5.0262   26.2596 H   0  0  0  0  0  0
    5.9326   -4.1016   23.7373 H   0  0  0  0  0  0
    8.7920   -4.5964   25.1959 H   0  0  0  0  0  0
    8.5702   -3.6624   23.7160 H   0  0  0  0  0  0
    9.5717   -5.1141   23.7089 H   0  0  0  0  0  0
    6.7289   -6.5931   22.1774 H   0  0  0  0  0  0
    8.4254   -6.1639   22.0312 H   0  0  0  0  0  0
    7.1763   -4.9422   21.7623 H   0  0  0  0  0  0
    2.4337   -7.0339   26.9406 H   0  0  0  0  0  0
    1.4509   -8.0769   25.9463 H   0  0  0  0  0  0
    2.3280   -2.9047   26.6532 H   0  0  0  0  0  0
    6.0662   -5.0681   28.3626 H   0  0  0  0  0  0
    8.4047   -3.4229   27.0527 H   0  0  0  0  0  0
    5.6651   -2.4737   22.9715 H   0  0  0  0  0  0
  1  2  1  0  0  0
  1 34  1  0  0  0
  1 35  1  0  0  0
  1 36  1  0  0  0
  2  3  1  0  0  0
  2 33  1  0  0  0
  2 13  1  0  0  0
  3  4  2  0  0  0
  3  9  1  0  0  0
  4  5  1  0  0  0
  4 37  1  0  0  0
  5  6  2  0  0  0
  5 38  1  0  0  0
  6  7  1  0  0  0
  6 39  1  0  0  0
  7  8  1  0  0  0
  7  9  2  0  0  0
  8 40  1  0  0  0
  9 10  1  0  0  0
 10 11  2  0  0  0
 10 12  1  0  0  0
 12 13  1  0  0  0
 12 29  2  0  0  0
 13 14  1  0  0  0
 13 41  1  0  0  0
 14 15  1  0  0  0
 14 32  1  0  0  0
 14 42  1  0  0  0
 15 16  1  0  0  0
 15 28  1  0  0  0
 15 43  1  0  0  0
 16 17  1  0  0  0
 16 20  1  0  0  0
 16 44  1  0  0  0
 17 18  1  0  0  0
 17 19  1  0  0  0
 18 45  1  0  0  0
 18 46  1  0  0  0
 18 47  1  0  0  0
 19 48  1  0  0  0
 19 49  1  0  0  0
 19 50  1  0  0  0
 20 21  1  0  0  0
 20 22  2  0  0  0
 22 23  1  0  0  0
 22 26  1  0  0  0
 23 24  1  0  0  0
 23 25  2  0  0  0
 24 51  1  0  0  0
 24 52  1  0  0  0
 26 27  2  0  0  0
 26 28  1  0  0  0
 28 29  1  0  0  0
 28 31  1  0  0  0
 29 30  1  0  0  0
 30 53  1  0  0  0
 31 54  1  0  0  0
 32 55  1  0  0  0
 33 56  1  0  0  0
M  CHG  1  21  -1
M  END
> <s_m_entry_id>
2171

> <s_m_entry_name>
Compounds-withfrags-for-validation-docking.1911

> <s_m_Source_Path>
/home/rodolpho/data/melina/maestro/glide-dock_XP_5RGK_M-PRO_VALIDATION

> <s_m_Source_File>
glide-dock_XP_5RGK_M-PRO_VALIDATION_pv.maegz

> <i_m_Source_File_Index>
2171

> <CID>
Oxitetracyclin

> <Potency>
15.15

> <pIC50>
4.81959

> <Source>
https://doi.org/10.1101/2020.03.23.004580

> <smiles>
C(C1(C2=C(C(=C(C(O[H])=C2C(O[H])=C2C1(C(C1(C(N(C([H])([H])[H])C([H])([H])[H])([H])C(=O)C(=C(N([H])[H])O[H])C(=O)C1(C2=O)O[H])[H])(O[H])[H])[H])[H])[H])[H])O[H])([H])([H])[H]

> <Outcome>
Inactive

> <StandardizerResult>
Clear Stereo (ID: ClearStereo)
Wedge Clean (ID: WedgeClean)
Mesomerize (ID: Mesomerize)
Tautomerize (ID: Tautomerize)
Aromatize (ID: Aromatize)
Add Explicit Hydrogens (ID: AddExplicitH)
Neutralize (ID: Neutralize)
Clean 2D (ID: Clean2D)

> <chiral flag>
0

> <version>
0

> <i_lp_mmshare_version>
41011

> <i_f3d_flags>
0

> <s_epik_input>
W09IXWMxW2NIXVtjSF1bY0hdYyhbQ0BdMihbQ0gzXSlbT0hdKWMxQyg9TylDKD1DM1tPSF0pW0NASF0yW0NAQEhdKFtPSF0pW0NAQEhdKFtDQEBdMzRbT0hdKVtDQEBIXShOKFtDSDNdKVtDSDNdKUMoPU8pW0NASF0oQzQ9TylDKD1PKVtOSDJd

> <s_epik_cmdline>
J2VwaWtfcHl0aG9uJywgJy1waHQnLCAnMC41JywgJy1waCcsICc3LjQnLCAnLXRuJywgJzgnLCAnLW1hJywgJzIwMCcsICctaW1hZScsICc8aW5maWxlLm1hZT4nLCAnLW9tYWUnLCAnPG91dGZpbGUubWFlPic=

> <r_epik_Ionization_Penalty>
0.3646

> <r_epik_Ionization_Penalty_Charging>
0.0013

> <r_epik_Ionization_Penalty_Neutral>
0.3633

> <r_epik_State_Penalty>
0.3215

> <r_epik_Charging_Adjusted_Penalty>
0.322822

> <i_epik_Tot_Q>
-1

> <i_epik_Tot_abs_Q>
1

> <s_lp_Force_Field>
OPLS3

> <r_lp_Energy>
61.3835

> <b_lp_Chiralities_Consistent>
1

> <s_lp_Variant>
ligprep_COVID_compounds-withfrags-smallmolecules-forvalidation.maegz:6-11

> <i_glide_original_lignum>
63

> <s_i_glide_gridfile>
glide-grid_5RGK_M-PRO_COVID

> <i_i_glide_lignum>
63

> <r_i_docking_score>
-3.82978013088604

> <r_i_glide_ligand_efficiency>
-0.116053943360183

> <r_i_glide_ligand_efficiency_sa>
-0.372247007025323

> <r_i_glide_ligand_efficiency_ln>
-0.851723271568791

> <r_glide_XP_GScore>
-4.15127713088604

> <r_i_glide_gscore>
-4.15127713088604

> <r_i_glide_evdw>
-19.6092720031738

> <r_i_glide_ecoul>
-8.15990829467773

> <r_i_glide_energy>
-27.7691802978516

> <r_i_glide_einternal>
7.07736778259277

> <r_i_glide_emodel>
-29.5653757940498

> <r_glide_XP_HBond>
-1.91076185574003

> <i_i_glide_confnum>
1

> <i_i_glide_posenum>
23

> <r_i_glide_eff_state_penalty>
0.321497

> <i_glide_XP_PoseRank>
1

> <r_lp_tautomer_probability>


> <s_epik_Chemistry_Notes>


> <MW>


> <cLogP>


> <TPSA>


> <Rotatable Bonds>


> <Fraction sp3>


> <HBA>


> <HBD>


> <Structure ID>


> <Submission Fragments>


$$$$
ligprep_COVID_compounds-withfrags-smallmolecules-forvalidation.maegz:65
                    3D
 Structure written by MMmdl.
 43 46  0  0  1  0            999 V2000
   13.1645    1.3225   22.8803 C   0  0  0  0  0  0
   12.1415    0.3774   23.1591 O   0  0  0  0  0  0
   10.9855    0.8140   23.7707 C   0  0  0  0  0  0
   10.6712    2.1854   23.9402 C   0  0  0  0  0  0
    9.4342    2.5709   24.4859 C   0  0  0  0  0  0
    9.0273    4.2437   24.5929 Cl  0  0  0  0  0  0
    8.5218    1.5934   24.9156 C   0  0  0  0  0  0
    8.8187    0.2240   24.7548 C   0  0  0  0  0  0
   10.0481   -0.1686   24.1747 C   0  0  0  0  0  0
   10.3749   -1.4981   23.9891 O   0  0  0  0  0  0
    9.3746   -2.5003   24.1707 C   0  0  0  0  0  0
    8.4730   -2.2011   25.3650 C   0  0  0  0  0  0
    7.8090   -0.8327   25.1857 C   0  0  2  0  0  0
    6.5843   -0.8760   24.2485 C   0  0  0  0  0  0
    5.5428   -1.3643   24.6789 O   0  0  0  0  0  0
    6.6883   -0.3540   23.0108 N   0  0  0  0  0  0
    5.6242    0.2104   22.2481 C   0  0  0  0  0  0
    4.4905    0.7828   22.8741 C   0  0  0  0  0  0
    3.5112    1.4370   22.2173 N   0  0  0  0  0  0
    3.6407    1.5858   20.8850 C   0  0  0  0  0  0
    4.7069    1.0363   20.1487 C   0  0  0  0  0  0
    4.7753    1.2019   18.7527 C   0  0  0  0  0  0
    5.8402    0.6289   18.0351 C   0  0  0  0  0  0
    6.8309   -0.1129   18.7067 C   0  0  0  0  0  0
    6.7746   -0.2528   20.1027 C   0  0  0  0  0  0
    5.7168    0.3260   20.8404 C   0  0  0  0  0  0
   14.0409    0.8033   22.4912 H   0  0  0  0  0  0
   13.4716    1.8514   23.7814 H   0  0  0  0  0  0
   12.8470    2.0474   22.1308 H   0  0  0  0  0  0
   11.3412    2.9647   23.6135 H   0  0  0  0  0  0
    7.5764    1.8994   25.3388 H   0  0  0  0  0  0
    8.7740   -2.5967   23.2673 H   0  0  0  0  0  0
    9.8727   -3.4597   24.3143 H   0  0  0  0  0  0
    7.7257   -2.9848   25.4914 H   0  0  0  0  0  0
    9.0750   -2.2035   26.2749 H   0  0  0  0  0  0
    7.4281   -0.5388   26.1642 H   0  0  0  0  0  0
    7.6196   -0.1868   22.6550 H   0  0  0  0  0  0
    4.3645    0.7562   23.9444 H   0  0  0  0  0  0
    2.8540    2.1386   20.3885 H   0  0  0  0  0  0
    4.0189    1.7710   18.2294 H   0  0  0  0  0  0
    5.8798    0.7561   16.9693 H   0  0  0  0  0  0
    7.6438   -0.5749   18.1672 H   0  0  0  0  0  0
    7.5454   -0.8317   20.5811 H   0  0  0  0  0  0
  1  2  1  0  0  0
  1 27  1  0  0  0
  1 28  1  0  0  0
  1 29  1  0  0  0
  2  3  1  0  0  0
  3  4  2  0  0  0
  3  9  1  0  0  0
  4  5  1  0  0  0
  4 30  1  0  0  0
  5  6  1  0  0  0
  5  7  2  0  0  0
  7  8  1  0  0  0
  7 31  1  0  0  0
  8  9  2  0  0  0
  8 13  1  0  0  0
  9 10  1  0  0  0
 10 11  1  0  0  0
 11 12  1  0  0  0
 11 32  1  0  0  0
 11 33  1  0  0  0
 12 13  1  0  0  0
 12 34  1  0  0  0
 12 35  1  0  0  0
 13 14  1  0  0  0
 13 36  1  0  0  0
 14 15  2  0  0  0
 14 16  1  0  0  0
 16 17  1  0  0  0
 16 37  1  0  0  0
 17 18  2  0  0  0
 17 26  1  0  0  0
 18 19  1  0  0  0
 18 38  1  0  0  0
 19 20  2  0  0  0
 20 21  1  0  0  0
 20 39  1  0  0  0
 21 22  2  0  0  0
 21 26  1  0  0  0
 22 23  1  0  0  0
 22 40  1  0  0  0
 23 24  2  0  0  0
 23 41  1  0  0  0
 24 25  1  0  0  0
 24 42  1  0  0  0
 25 26  2  0  0  0
 25 43  1  0  0  0
M  END
> <s_m_entry_id>
2187

> <s_m_entry_name>
Compounds-withfrags-for-validation-docking.1852

> <s_m_Source_Path>
/home/rodolpho/data/melina/maestro/glide-dock_XP_5RGK_M-PRO_VALIDATION

> <s_m_Source_File>
glide-dock_XP_5RGK_M-PRO_VALIDATION_pv.maegz

> <i_m_Source_File_Index>
2187

> <CID>
EDJ-MED-e4b030d8-7

> <Potency>
99.5

> <pIC50>
4.00218

> <Source>
Postera

> <smiles>
COc1cc(Cl)cc2c1OCC[C@H]2C(=O)Nc1cncc2ccccc12

> <Outcome>
Inactive

> <StandardizerResult>
Clear Stereo (ID: ClearStereo)
Wedge Clean (ID: WedgeClean)
Mesomerize (ID: Mesomerize)
Tautomerize (ID: Tautomerize)
Aromatize (ID: Aromatize)
Add Explicit Hydrogens (ID: AddExplicitH)
Neutralize (ID: Neutralize)
Clean 2D (ID: Clean2D)

> <chiral flag>
0

> <version>
0

> <i_lp_mmshare_version>
41011

> <i_f3d_flags>
0

> <s_epik_input>
Q2xjKFtjSF0xKVtjSF1jKE9bQ0gzXSljKGMxMilPW0NIMl1bQ0gyXVtDQEBIXTJDKD1PKVtOSF1jKFtjSF1uW2NIXTMpYyhjMzQpW2NIXVtjSF1bY0hdW2NIXTQ=

> <s_epik_cmdline>
J2VwaWtfcHl0aG9uJywgJy1waHQnLCAnMC41JywgJy1waCcsICc3LjQnLCAnLXRuJywgJzgnLCAnLW1hJywgJzIwMCcsICctaW1hZScsICc8aW5maWxlLm1hZT4nLCAnLW9tYWUnLCAnPG91dGZpbGUubWFlPic=

> <r_lp_tautomer_probability>
1.0

> <r_epik_Ionization_Penalty>
0.0029

> <r_epik_Ionization_Penalty_Charging>
0.0

> <r_epik_Ionization_Penalty_Neutral>
0.0029

> <r_epik_State_Penalty>
0.0

> <r_epik_Charging_Adjusted_Penalty>
0.0

> <i_epik_Tot_Q>
0

> <i_epik_Tot_abs_Q>
0

> <s_lp_Force_Field>
OPLS3

> <r_lp_Energy>
55.3268

> <b_lp_Chiralities_Consistent>
1

> <s_lp_Variant>
ligprep_COVID_compounds-withfrags-smallmolecules-forvalidation.maegz:65-2

> <i_glide_original_lignum>
239

> <s_i_glide_gridfile>
glide-grid_5RGK_M-PRO_COVID

> <i_i_glide_lignum>
239

> <r_i_docking_score>
-3.81994452986858

> <r_i_glide_ligand_efficiency>
-0.146920943456484

> <r_i_glide_ligand_efficiency_sa>
-0.435252716883836

> <r_i_glide_ligand_efficiency_ln>
-0.897101438579292

> <r_glide_XP_GScore>
-3.81994452986858

> <r_i_glide_gscore>
-3.81994452986858

> <r_i_glide_evdw>
-32.6656875610352

> <r_i_glide_ecoul>
-4.19260931015015

> <r_i_glide_energy>
-36.8582968711853

> <r_i_glide_einternal>
1.51824188232422

> <r_i_glide_emodel>
-49.3841722028855

> <r_glide_XP_HBond>
-0.697212073309626

> <i_i_glide_confnum>
1

> <i_i_glide_posenum>
9

> <r_i_glide_eff_state_penalty>
0.0

> <i_glide_XP_PoseRank>
1

> <MW>
368.09

> <cLogP>
4.4

> <TPSA>
60.45

> <Rotatable Bonds>
3

> <Fraction sp3>
0.2

> <HBA>
4

> <HBD>
1

> <s_epik_Chemistry_Notes>


> <Structure ID>


> <Submission Fragments>


$$$$
ligprep_COVID_compounds-withfrags-smallmolecules-forvalidation.maegz:1
                    3D
 Structure written by MMmdl.
 43 45  0  0  1  0            999 V2000
    3.1711   -6.3945   22.6329 C   0  0  0  0  0  0
    3.7584   -7.2295   23.7772 C   0  0  0  0  0  0
    2.7183   -8.2115   24.3437 C   0  0  0  0  0  0
    4.3925   -6.3878   24.7818 N   0  0  0  0  0  0
    4.4191   -6.3846   26.1707 C   0  0  0  0  0  0
    3.3734   -6.7126   26.9239 N   0  0  0  0  0  0
    3.9094   -6.6960   28.1916 C   0  0  0  0  0  0
    3.3095   -7.0004   29.4332 C   0  0  0  0  0  0
    4.0635   -6.9544   30.6199 C   0  0  0  0  0  0
    5.4328   -6.6014   30.5772 C   0  0  0  0  0  0
    6.0466   -6.2972   29.3462 C   0  0  0  0  0  0
    5.2835   -6.3260   28.1623 C   0  0  0  0  0  0
    5.5668   -6.0660   26.8263 N   0  0  0  0  0  0
    6.9291   -5.6767   26.2945 C   0  0  2  0  0  0
    7.5299   -4.4421   26.9789 C   0  0  2  0  0  0
    6.5469   -3.5002   27.3699 O   0  0  0  0  0  0
    8.4132   -3.8912   25.8726 C   0  0  1  0  0  0
    9.6684   -4.5564   25.8691 O   0  0  0  0  0  0
    7.5931   -4.1931   24.6078 C   0  0  1  0  0  0
    8.4105   -4.4204   23.3253 C   0  0  0  0  0  0
    7.5749   -4.3607   22.1831 O   0  0  0  0  0  0
    6.8508   -5.3636   24.9331 O   0  0  0  0  0  0
    6.3763   -6.5645   32.0195 Cl  0  0  0  0  0  0
    3.2968   -7.3628   32.1150 Cl  0  0  0  0  0  0
    2.7739   -7.0456   21.8548 H   0  0  0  0  0  0
    3.9263   -5.7540   22.1778 H   0  0  0  0  0  0
    2.3536   -5.7659   22.9738 H   0  0  0  0  0  0
    4.5762   -7.8208   23.3711 H   0  0  0  0  0  0
    2.3356   -8.8657   23.5624 H   0  0  0  0  0  0
    1.8651   -7.6838   24.7735 H   0  0  0  0  0  0
    3.1497   -8.8439   25.1223 H   0  0  0  0  0  0
    5.2703   -6.0011   24.4415 H   0  0  0  0  0  0
    2.2712   -7.2928   29.4615 H   0  0  0  0  0  0
    7.0995   -6.0648   29.3128 H   0  0  0  0  0  0
    7.5478   -6.5636   26.4253 H   0  0  0  0  0  0
    8.1151   -4.7278   27.8533 H   0  0  0  0  0  0
    5.9779   -3.3379   26.6313 H   0  0  0  0  0  0
    8.6021   -2.8215   25.9848 H   0  0  0  0  0  0
    9.5329   -5.4934   25.8296 H   0  0  0  0  0  0
    6.8821   -3.3804   24.4605 H   0  0  0  0  0  0
    9.1711   -3.6461   23.2259 H   0  0  0  0  0  0
    8.9302   -5.3766   23.3632 H   0  0  0  0  0  0
    7.1172   -3.5311   22.1746 H   0  0  0  0  0  0
  1  2  1  0  0  0
  1 25  1  0  0  0
  1 26  1  0  0  0
  1 27  1  0  0  0
  2  3  1  0  0  0
  2  4  1  0  0  0
  2 28  1  0  0  0
  3 29  1  0  0  0
  3 30  1  0  0  0
  3 31  1  0  0  0
  4  5  1  0  0  0
  4 32  1  0  0  0
  5  6  2  0  0  0
  5 13  1  0  0  0
  6  7  1  0  0  0
  7  8  2  0  0  0
  7 12  1  0  0  0
  8  9  1  0  0  0
  8 33  1  0  0  0
  9 10  2  0  0  0
  9 24  1  0  0  0
 10 11  1  0  0  0
 10 23  1  0  0  0
 11 12  2  0  0  0
 11 34  1  0  0  0
 12 13  1  0  0  0
 13 14  1  0  0  0
 14 15  1  0  0  0
 14 22  1  0  0  0
 14 35  1  0  0  0
 15 16  1  0  0  0
 15 17  1  0  0  0
 15 36  1  0  0  0
 16 37  1  0  0  0
 17 18  1  0  0  0
 17 19  1  0  0  0
 17 38  1  0  0  0
 18 39  1  0  0  0
 19 20  1  0  0  0
 19 22  1  0  0  0
 19 40  1  0  0  0
 20 21  1  0  0  0
 20 41  1  0  0  0
 20 42  1  0  0  0
 21 43  1  0  0  0
M  END
> <s_m_entry_id>
2191

> <s_m_entry_name>
Compounds-withfrags-for-validation-docking.1916

> <s_m_Source_Path>
/home/rodolpho/data/melina/maestro/glide-dock_XP_5RGK_M-PRO_VALIDATION

> <s_m_Source_File>
glide-dock_XP_5RGK_M-PRO_VALIDATION_pv.maegz

> <i_m_Source_File_Index>
2191

> <CID>
Maribavir

> <pIC50>
4.30103

> <Source>
https://doi.org/10.1101/2020.03.23.004580

> <smiles>
C(C(C([H])([H])[H])(N(C1=NC2=C(C(=C(C([H])=C2N1C1(C(O[H])([H])C(O[H])([H])C(C(O[H])([H])[H])([H])O1)[H])Cl)Cl)[H])[H])[H])([H])([H])[H]

> <Outcome>
Inactive

> <StandardizerResult>
Clear Stereo (ID: ClearStereo)
Wedge Clean (ID: WedgeClean)
Mesomerize (ID: Mesomerize)
Tautomerize (ID: Tautomerize)
Aromatize (ID: Aromatize)
Add Explicit Hydrogens (ID: AddExplicitH)
Neutralize (ID: Neutralize)
Clean 2D (ID: Clean2D)

> <chiral flag>
0

> <version>
0

> <i_lp_mmshare_version>
41011

> <i_f3d_flags>
0

> <s_epik_input>
W2NIXTFjKENsKWMoQ2wpW2NIXWMoYzEyKW4oYyhuMilbTkhdW0NIXShbQ0gzXSlbQ0gzXSlbQ0BASF0zW0NASF0oW09IXSlbQ0BASF0oW09IXSlbQ0BIXShPMylbQ0gyXVtPSF0=

> <s_epik_cmdline>
J2VwaWtfcHl0aG9uJywgJy1waHQnLCAnMC41JywgJy1waCcsICc3LjQnLCAnLXRuJywgJzgnLCAnLW1hJywgJzIwMCcsICctaW1hZScsICc8aW5maWxlLm1hZT4nLCAnLW9tYWUnLCAnPG91dGZpbGUubWFlPic=

> <r_epik_Ionization_Penalty>
0.01

> <r_epik_Ionization_Penalty_Charging>
0.0

> <r_epik_Ionization_Penalty_Neutral>
0.01

> <r_epik_State_Penalty>
0.0076

> <r_epik_Charging_Adjusted_Penalty>
0.00760364

> <i_epik_Tot_Q>
0

> <i_epik_Tot_abs_Q>
0

> <s_lp_Force_Field>
OPLS3

> <r_lp_Energy>
15.9176

> <b_lp_Chiralities_Consistent>
1

> <s_lp_Variant>
ligprep_COVID_compounds-withfrags-smallmolecules-forvalidation.maegz:1-2

> <i_glide_original_lignum>
2

> <s_i_glide_gridfile>
glide-grid_5RGK_M-PRO_COVID

> <i_i_glide_lignum>
2

> <r_i_docking_score>
-3.81765800797928

> <r_i_glide_ligand_efficiency>
-0.159069083665803

> <r_i_glide_ligand_efficiency_sa>
-0.45883463464633

> <r_i_glide_ligand_efficiency_ln>
-0.913740742220488

> <r_glide_XP_GScore>
-3.82526164797928

> <r_i_glide_gscore>
-3.82526164797928

> <r_i_glide_evdw>
-31.1124172210693

> <r_i_glide_ecoul>
-9.69720840454102

> <r_i_glide_energy>
-40.8096256256104

> <r_i_glide_einternal>
6.06748342514038

> <r_i_glide_emodel>
-44.562770711204

> <r_glide_XP_HBond>
-1.44

> <i_i_glide_confnum>
1

> <i_i_glide_posenum>
60

> <r_i_glide_eff_state_penalty>
0.00760364

> <i_glide_XP_PoseRank>
1

> <s_epik_Chemistry_Notes>
This compound contains an acetal/aminal-like group ( X-CH(R)-Y where X, Y are N, S, or O) that may be acid/base labile, releasing an aldehyde.

> <Potency>
50.0

> <r_lp_tautomer_probability>


> <MW>


> <cLogP>


> <TPSA>


> <Rotatable Bonds>


> <Fraction sp3>


> <HBA>


> <HBD>


> <Structure ID>


> <Submission Fragments>


$$$$
ligprep_COVID_compounds-withfrags-smallmolecules-forvalidation.maegz:77
                    3D
 Structure written by MMmdl.
 49 52  0  0  1  0            999 V2000
    5.3259   -4.9756   30.7864 C   0  0  0  0  0  0
    4.6835   -4.2534   29.6923 N   0  0  0  0  0  0
    3.9186   -3.0578   30.0254 C   0  0  0  0  0  0
    5.1747   -4.3943   28.3736 C   0  0  0  0  0  0
    6.3364   -5.1574   28.0920 C   0  0  0  0  0  0
    6.8179   -5.2867   26.7770 C   0  0  0  0  0  0
    6.1405   -4.6752   25.7001 C   0  0  0  0  0  0
    6.6111   -4.9351   24.2581 C   0  0  1  0  0  0
    5.5930   -5.6646   23.3179 C   0  0  0  0  0  0
    4.3921   -6.3788   23.9031 C   0  0  0  0  0  0
    3.1821   -6.5638   23.1670 C   0  0  0  0  0  0
    2.2172   -7.2612   23.8418 C   0  0  0  0  0  0
    2.7664   -7.7294   25.4191 S   0  0  0  0  0  0
    4.3060   -6.9655   25.1406 C   0  0  0  0  0  0
    7.2444   -3.7022   23.5595 C   0  0  0  0  0  0
    7.9192   -3.8872   22.5470 O   0  0  0  0  0  0
    7.0133   -2.4873   24.1764 N   0  0  0  0  0  0
    6.7755   -1.3857   23.5266 C   0  0  0  0  0  0
    6.7004   -0.1635   24.1701 N   0  0  0  0  0  0
    6.4280    0.8669   23.3646 N   0  0  0  0  0  0
    6.3016    0.3716   22.1838 C   0  0  0  0  0  0
    5.9861    1.0131   20.9203 C   0  0  0  0  0  0
    5.8394    0.2455   19.8159 C   0  0  0  0  0  0
    5.9754   -1.2000   19.8869 C   0  0  0  0  0  0
    6.2933   -1.7621   21.0691 C   0  0  0  0  0  0
    6.4998   -0.9966   22.2222 N   0  0  0  0  0  0
    4.9929   -3.9010   25.9737 C   0  0  0  0  0  0
    4.5201   -3.7608   27.2912 C   0  0  0  0  0  0
    5.4205   -6.0371   30.5556 H   0  0  0  0  0  0
    4.7375   -4.8936   31.7015 H   0  0  0  0  0  0
    6.3159   -4.5652   30.9934 H   0  0  0  0  0  0
    2.9026   -3.1261   29.6329 H   0  0  0  0  0  0
    4.3978   -2.1670   29.6145 H   0  0  0  0  0  0
    3.8521   -2.9205   31.1057 H   0  0  0  0  0  0
    6.8827   -5.6622   28.8731 H   0  0  0  0  0  0
    7.6937   -5.8945   26.5999 H   0  0  0  0  0  0
    7.4417   -5.6329   24.3660 H   0  0  0  0  0  0
    5.2187   -4.9639   22.5764 H   0  0  0  0  0  0
    6.1584   -6.3798   22.7180 H   0  0  0  0  0  0
    3.0585   -6.1736   22.1684 H   0  0  0  0  0  0
    1.2257   -7.5276   23.5071 H   0  0  0  0  0  0
    5.0599   -7.0293   25.9098 H   0  0  0  0  0  0
    5.8611    2.0838   20.8387 H   0  0  0  0  0  0
    5.6027    0.7154   18.8713 H   0  0  0  0  0  0
    5.7833   -1.8128   19.0173 H   0  0  0  0  0  0
    6.3463   -2.8291   21.1804 H   0  0  0  0  0  0
    4.4612   -3.4275   25.1621 H   0  0  0  0  0  0
    3.6301   -3.1705   27.4475 H   0  0  0  0  0  0
    6.7205   -0.0293   25.1771 H   0  0  0  0  0  0
  1  2  1  0  0  0
  1 29  1  0  0  0
  1 30  1  0  0  0
  1 31  1  0  0  0
  2  3  1  0  0  0
  2  4  1  0  0  0
  3 32  1  0  0  0
  3 33  1  0  0  0
  3 34  1  0  0  0
  4  5  2  0  0  0
  4 28  1  0  0  0
  5  6  1  0  0  0
  5 35  1  0  0  0
  6  7  2  0  0  0
  6 36  1  0  0  0
  7  8  1  0  0  0
  7 27  1  0  0  0
  8  9  1  0  0  0
  8 15  1  0  0  0
  8 37  1  0  0  0
  9 10  1  0  0  0
  9 38  1  0  0  0
  9 39  1  0  0  0
 10 11  1  0  0  0
 10 14  2  0  0  0
 11 12  2  0  0  0
 11 40  1  0  0  0
 12 13  1  0  0  0
 12 41  1  0  0  0
 13 14  1  0  0  0
 14 42  1  0  0  0
 15 16  2  0  0  0
 15 17  1  0  0  0
 17 18  2  0  0  0
 18 19  1  0  0  0
 18 26  1  0  0  0
 19 20  1  0  0  0
 19 49  1  0  0  0
 20 21  2  0  0  0
 21 22  1  0  0  0
 21 26  1  0  0  0
 22 23  2  0  0  0
 22 43  1  0  0  0
 23 24  1  0  0  0
 23 44  1  0  0  0
 24 25  2  0  0  0
 24 45  1  0  0  0
 25 26  1  0  0  0
 25 46  1  0  0  0
 27 28  2  0  0  0
 27 47  1  0  0  0
 28 48  1  0  0  0
M  END
> <s_m_entry_id>
2199

> <s_m_entry_name>
Compounds-withfrags-for-validation-docking.1840

> <s_m_Source_Path>
/home/rodolpho/data/melina/maestro/glide-dock_XP_5RGK_M-PRO_VALIDATION

> <s_m_Source_File>
glide-dock_XP_5RGK_M-PRO_VALIDATION_pv.maegz

> <i_m_Source_File_Index>
2199

> <CID>
ALP-POS-a3de0cb1-10

> <Potency>
99.5

> <pIC50>
4.00218

> <Source>
Postera

> <smiles>
CN(C)c1ccc(C(Cc2ccsc2)C(=O)Nc2nnc3ccccn23)cc1

> <Outcome>
Inactive

> <StandardizerResult>
Clear Stereo (ID: ClearStereo)
Wedge Clean (ID: WedgeClean)
Mesomerize (ID: Mesomerize)
Tautomerize (ID: Tautomerize)
Aromatize (ID: Aromatize)
Add Explicit Hydrogens (ID: AddExplicitH)
Neutralize (ID: Neutralize)
Clean 2D (ID: Clean2D)

> <chiral flag>
0

> <version>
0

> <i_lp_mmshare_version>
41011

> <i_f3d_flags>
0

> <s_epik_input>
W0NIM11OKFtDSDNdKWMxW2NIXVtjSF1jKFtjSF1bY0hdMSlbQ0BASF0oW0NIMl1jMltjSF1bY0hdc1tjSF0yKUMoPU8pW05IXWMobm4zKW4oYzM0KVtjSF1bY0hdW2NIXVtjSF00

> <s_epik_cmdline>
J2VwaWtfcHl0aG9uJywgJy1waHQnLCAnMC41JywgJy1waCcsICc3LjQnLCAnLXRuJywgJzgnLCAnLW1hJywgJzIwMCcsICctaW1hZScsICc8aW5maWxlLm1hZT4nLCAnLW9tYWUnLCAnPG91dGZpbGUubWFlPic=

> <r_lp_tautomer_probability>
1.0

> <r_epik_Ionization_Penalty>
0.0786

> <r_epik_Ionization_Penalty_Charging>
0.0031

> <r_epik_Ionization_Penalty_Neutral>
0.0755

> <r_epik_State_Penalty>
0.0

> <r_epik_Charging_Adjusted_Penalty>
0.00307897

> <i_epik_Tot_Q>
0

> <i_epik_Tot_abs_Q>
0

> <s_lp_Force_Field>
OPLS3

> <r_lp_Energy>
53.2433

> <b_lp_Chiralities_Consistent>
1

> <s_lp_Variant>
ligprep_COVID_compounds-withfrags-smallmolecules-forvalidation.maegz:77-1

> <i_glide_original_lignum>
254

> <s_i_glide_gridfile>
glide-grid_5RGK_M-PRO_COVID

> <i_i_glide_lignum>
254

> <r_i_docking_score>
-3.81528829978162

> <r_i_glide_ligand_efficiency>
-0.136260296420772

> <r_i_glide_ligand_efficiency_sa>
-0.41376651295624

> <r_i_glide_ligand_efficiency_ln>
-0.880680561321727

> <r_glide_XP_GScore>
-3.81528829978162

> <r_i_glide_gscore>
-3.81528829978162

> <r_i_glide_evdw>
-35.5910797119141

> <r_i_glide_ecoul>
-8.46748161315918

> <r_i_glide_energy>
-44.0585613250732

> <r_i_glide_einternal>
7.34638738632202

> <r_i_glide_emodel>
-49.8239601229679

> <r_glide_XP_HBond>
0.0

> <i_i_glide_confnum>
1

> <i_i_glide_posenum>
1

> <r_i_glide_eff_state_penalty>
0.0

> <i_glide_XP_PoseRank>
1

> <MW>
391.15

> <cLogP>
3.82

> <TPSA>
62.53

> <Rotatable Bonds>
6

> <Fraction sp3>
0.19

> <HBA>
6

> <HBD>
1

> <s_epik_Chemistry_Notes>


> <Structure ID>


> <Submission Fragments>


$$$$
ligprep_COVID_compounds-withfrags-smallmolecules-forvalidation.maegz:19
                    3D
 Structure written by MMmdl.
 74 78  0  0  1  0            999 V2000
    4.6017    4.9356   26.5958 C   0  0  0  0  0  0
    5.2709    4.2791   25.4933 N   0  0  0  0  0  0
    4.5600    3.4361   24.7063 N   0  0  0  0  0  0
    5.3757    2.9842   23.7711 C   0  0  0  0  0  0
    4.9978    1.9842   22.6683 C   0  0  1  0  0  0
    5.1294    0.6168   23.3653 C   0  0  0  0  0  0
    4.1704    0.1138   23.9455 O   0  0  0  0  0  0
    6.3245    0.0089   23.2815 N   0  0  0  0  0  0
    6.6044   -1.3380   23.7672 C   0  0  0  0  0  0
    7.9875   -1.4027   24.4410 C   0  0  0  0  0  0
    8.3842   -2.8136   24.8508 C   0  0  0  0  0  0
    8.7656   -3.0910   26.1828 C   0  0  0  0  0  0
    9.1462   -4.3943   26.5614 C   0  0  0  0  0  0
    9.1400   -5.4326   25.6105 C   0  0  0  0  0  0
    8.7540   -5.1658   24.2825 C   0  0  0  0  0  0
    8.7193   -6.1633   23.3703 F   0  0  0  0  0  0
    8.3902   -3.8595   23.9006 C   0  0  0  0  0  0
    3.6507    2.1389   22.0332 N   0  0  0  0  0  0
    3.4274    1.8362   20.7228 C   0  0  0  0  0  0
    2.3467    2.0629   20.1725 O   0  0  0  0  0  0
    4.4829    1.1828   19.9093 C   0  0  0  0  0  0
    4.8745    1.4321   18.6225 C   0  0  0  0  0  0
    5.8522    0.4536   18.2963 C   0  0  0  0  0  0
    5.9850   -0.3340   19.4035 C   0  0  0  0  0  0
    5.1464    0.0891   20.3851 O   0  0  0  0  0  0
    2.5716    2.7522   22.7407 C   0  0  0  0  0  0
    2.3431    4.1378   22.6051 C   0  0  0  0  0  0
    1.3133    4.7624   23.3380 C   0  0  0  0  0  0
    0.4887    4.0160   24.2170 C   0  0  0  0  0  0
   -0.6215    4.6663   25.0596 C   0  0  0  0  0  0
   -1.9781    4.0120   24.7246 C   0  0  0  0  0  0
   -0.7563    6.1844   24.8076 C   0  0  0  0  0  0
   -0.3110    4.4685   26.5577 C   0  0  0  0  0  0
    0.7150    2.6227   24.3193 C   0  0  0  0  0  0
    1.7361    1.9942   23.5865 C   0  0  0  0  0  0
    6.6959    3.5285   23.9853 C   0  0  0  0  0  0
    7.9643    3.4333   23.3622 C   0  0  0  0  0  0
    9.0690    4.1712   23.8329 C   0  0  0  0  0  0
    8.9391    5.0072   24.9567 C   0  0  0  0  0  0
    7.6948    5.1139   25.6049 C   0  0  0  0  0  0
    6.5956    4.3872   25.1109 C   0  0  0  0  0  0
    5.0665    4.6317   27.5332 H   0  0  0  0  0  0
    3.5447    4.6739   26.6202 H   0  0  0  0  0  0
    4.6960    6.0159   26.4871 H   0  0  0  0  0  0
    5.7705    2.0735   21.9042 H   0  0  0  0  0  0
    7.0603    0.4755   22.7693 H   0  0  0  0  0  0
    5.8373   -1.6848   24.4669 H   0  0  0  0  0  0
    6.5572   -2.0020   22.9020 H   0  0  0  0  0  0
    8.7541   -1.0157   23.7719 H   0  0  0  0  0  0
    7.9922   -0.7523   25.3164 H   0  0  0  0  0  0
    8.7676   -2.3030   26.9220 H   0  0  0  0  0  0
    9.4424   -4.6024   27.5795 H   0  0  0  0  0  0
    9.4220   -6.4344   25.9009 H   0  0  0  0  0  0
    8.1127   -3.6718   22.8739 H   0  0  0  0  0  0
    4.4930    2.2294   18.0025 H   0  0  0  0  0  0
    6.3741    0.3282   17.3626 H   0  0  0  0  0  0
    6.5821   -1.1989   19.6505 H   0  0  0  0  0  0
    2.9790    4.7253   21.9568 H   0  0  0  0  0  0
    1.1934    5.8263   23.2127 H   0  0  0  0  0  0
   -2.7910    4.4655   25.2901 H   0  0  0  0  0  0
   -1.9905    2.9458   24.9519 H   0  0  0  0  0  0
   -2.2156    4.1195   23.6645 H   0  0  0  0  0  0
   -0.9940    6.4004   23.7646 H   0  0  0  0  0  0
    0.1599    6.7163   25.0645 H   0  0  0  0  0  0
   -1.5537    6.6162   25.4130 H   0  0  0  0  0  0
   -1.0696    4.9357   27.1868 H   0  0  0  0  0  0
    0.6520    4.9141   26.8175 H   0  0  0  0  0  0
   -0.2679    3.4139   26.8330 H   0  0  0  0  0  0
    0.1074    2.0184   24.9761 H   0  0  0  0  0  0
    1.8779    0.9301   23.6922 H   0  0  0  0  0  0
    8.0619    2.8250   22.4793 H   0  0  0  0  0  0
   10.0172    4.1037   23.3169 H   0  0  0  0  0  0
    9.7867    5.5692   25.3183 H   0  0  0  0  0  0
    7.5799    5.7514   26.4652 H   0  0  0  0  0  0
  1  2  1  0  0  0
  1 42  1  0  0  0
  1 43  1  0  0  0
  1 44  1  0  0  0
  2  3  1  0  0  0
  2 41  1  0  0  0
  3  4  2  0  0  0
  4  5  1  0  0  0
  4 36  1  0  0  0
  5  6  1  0  0  0
  5 18  1  0  0  0
  5 45  1  0  0  0
  6  7  2  0  0  0
  6  8  1  0  0  0
  8  9  1  0  0  0
  8 46  1  0  0  0
  9 10  1  0  0  0
  9 47  1  0  0  0
  9 48  1  0  0  0
 10 11  1  0  0  0
 10 49  1  0  0  0
 10 50  1  0  0  0
 11 12  2  0  0  0
 11 17  1  0  0  0
 12 13  1  0  0  0
 12 51  1  0  0  0
 13 14  2  0  0  0
 13 52  1  0  0  0
 14 15  1  0  0  0
 14 53  1  0  0  0
 15 16  1  0  0  0
 15 17  2  0  0  0
 17 54  1  0  0  0
 18 19  1  0  0  0
 18 26  1  0  0  0
 19 20  2  0  0  0
 19 21  1  0  0  0
 21 22  2  0  0  0
 21 25  1  0  0  0
 22 23  1  0  0  0
 22 55  1  0  0  0
 23 24  2  0  0  0
 23 56  1  0  0  0
 24 25  1  0  0  0
 24 57  1  0  0  0
 26 27  2  0  0  0
 26 35  1  0  0  0
 27 28  1  0  0  0
 27 58  1  0  0  0
 28 29  2  0  0  0
 28 59  1  0  0  0
 29 30  1  0  0  0
 29 34  1  0  0  0
 30 31  1  0  0  0
 30 32  1  0  0  0
 30 33  1  0  0  0
 31 60  1  0  0  0
 31 61  1  0  0  0
 31 62  1  0  0  0
 32 63  1  0  0  0
 32 64  1  0  0  0
 32 65  1  0  0  0
 33 66  1  0  0  0
 33 67  1  0  0  0
 33 68  1  0  0  0
 34 35  2  0  0  0
 34 69  1  0  0  0
 35 70  1  0  0  0
 36 37  2  0  0  0
 36 41  1  0  0  0
 37 38  1  0  0  0
 37 71  1  0  0  0
 38 39  2  0  0  0
 38 72  1  0  0  0
 39 40  1  0  0  0
 39 73  1  0  0  0
 40 41  2  0  0  0
 40 74  1  0  0  0
M  END
> <s_m_entry_id>
2208

> <s_m_entry_name>
Compounds-withfrags-for-validation-docking.1898

> <s_m_Source_Path>
/home/rodolpho/data/melina/maestro/glide-dock_XP_5RGK_M-PRO_VALIDATION

> <s_m_Source_File>
glide-dock_XP_5RGK_M-PRO_VALIDATION_pv.maegz

> <i_m_Source_File_Index>
2208

> <CID>
ALP-POS-02c6a514-31

> <Potency>
99.5

> <pIC50>
4.00218

> <Source>
Postera

> <smiles>
Cn1nc(C(C(=O)NCCc2cccc(F)c2)N(C(=O)c2ccco2)c2ccc(C(C)(C)C)cc2)c2ccccc21

> <Outcome>
Inactive

> <StandardizerResult>
Clear Stereo (ID: ClearStereo)
Wedge Clean (ID: WedgeClean)
Mesomerize (ID: Mesomerize)
Tautomerize (ID: Tautomerize)
Aromatize (ID: Aromatize)
Add Explicit Hydrogens (ID: AddExplicitH)
Neutralize (ID: Neutralize)
Clean 2D (ID: Clean2D)

> <chiral flag>
0

> <version>
0

> <i_lp_mmshare_version>
41011

> <i_f3d_flags>
0

> <s_epik_input>
W2NIXTFbY0hdW2NIXVtjSF1jKGMxMiluKFtDSDNdKW5jMltDQEhdKE4oQyg9TyljM1tjSF1bY0hdW2NIXW8zKWM0W2NIXVtjSF1jKEMoW0NIM10pKFtDSDNdKVtDSDNdKVtjSF1bY0hdNClDKD1PKVtOSF1bQ0gyXVtDSDJdYzVbY0hdW2NIXVtjSF1jKEYpW2NIXTU=

> <s_epik_cmdline>
J2VwaWtfcHl0aG9uJywgJy1waHQnLCAnMC41JywgJy1waCcsICc3LjQnLCAnLXRuJywgJzgnLCAnLW1hJywgJzIwMCcsICctaW1hZScsICc8aW5maWxlLm1hZT4nLCAnLW9tYWUnLCAnPG91dGZpbGUubWFlPic=

> <r_lp_tautomer_probability>
1.0

> <r_epik_Ionization_Penalty>
0.0

> <r_epik_Ionization_Penalty_Charging>
0.0

> <r_epik_Ionization_Penalty_Neutral>
0.0

> <r_epik_State_Penalty>
0.0

> <r_epik_Charging_Adjusted_Penalty>
0.0

> <i_epik_Tot_Q>
0

> <i_epik_Tot_abs_Q>
0

> <s_lp_Force_Field>
OPLS3

> <r_lp_Energy>
67.374

> <b_lp_Chiralities_Consistent>
1

> <s_lp_Variant>
ligprep_COVID_compounds-withfrags-smallmolecules-forvalidation.maegz:19-2

> <i_glide_original_lignum>
132

> <s_i_glide_gridfile>
glide-grid_5RGK_M-PRO_COVID

> <i_i_glide_lignum>
132

> <r_i_docking_score>
-3.8098335579621

> <r_i_glide_ligand_efficiency>
-0.0929227697063926

> <r_i_glide_ligand_efficiency_sa>
-0.320417896129065

> <r_i_glide_ligand_efficiency_ln>
-0.808268867866467

> <r_glide_XP_GScore>
-3.8098335579621

> <r_i_glide_gscore>
-3.8098335579621

> <r_i_glide_evdw>
-39.4417953491211

> <r_i_glide_ecoul>
-6.35881423950195

> <r_i_glide_energy>
-45.800609588623

> <r_i_glide_einternal>
11.4772920608521

> <r_i_glide_emodel>
-54.6886468153796

> <r_glide_XP_HBond>
-0.516878034211918

> <i_i_glide_confnum>
5

> <i_i_glide_posenum>
30

> <r_i_glide_eff_state_penalty>
0.0

> <i_glide_XP_PoseRank>
1

> <MW>
552.25

> <cLogP>
6.35

> <TPSA>
80.37

> <Rotatable Bonds>
8

> <Fraction sp3>
0.24

> <HBA>
5

> <HBD>
1

> <s_epik_Chemistry_Notes>


> <Structure ID>


> <Submission Fragments>


$$$$
ligprep_COVID_compounds-withfrags-smallmolecules-forvalidation.maegz:67
                    3D
 Structure written by MMmdl.
 55 58  0  0  1  0            999 V2000
   -5.2930   -0.4439   19.0995 C   0  0  0  0  0  0
   -5.0412   -1.6522   18.3898 O   0  0  0  0  0  0
   -4.1438   -2.5649   18.9101 C   0  0  0  0  0  0
   -4.0915   -2.6654   20.3000 C   0  0  0  0  0  0
   -3.2155   -3.5558   20.9146 C   0  0  0  0  0  0
   -2.3719   -4.3648   20.1456 C   0  0  0  0  0  0
   -1.4266   -5.3160   20.8186 C   0  0  0  0  0  0
   -1.1491   -6.6401   20.4643 C   0  0  0  0  0  0
   -0.2348   -7.0900   21.3908 C   0  0  0  0  0  0
    0.4813   -8.3981   21.6264 C   0  0  0  0  0  0
    1.6006   -8.1729   22.4794 O   0  0  0  0  0  0
    1.3865   -7.8131   23.7963 C   0  0  0  0  0  0
    0.1202   -7.7028   24.3954 C   0  0  0  0  0  0
   -0.0004   -7.3211   25.7317 C   0  0  0  0  0  0
   -1.5627   -7.1834   26.4518 Cl  0  0  0  0  0  0
    1.1399   -7.0475   26.4852 C   0  0  0  0  0  0
    2.4077   -7.1616   25.9083 C   0  0  0  0  0  0
    3.6548   -6.8380   26.7280 C   0  0  0  0  0  0
    4.6200   -5.8601   26.0173 C   0  0  0  0  0  0
    4.1760   -4.8793   25.4209 O   0  0  0  0  0  0
    5.9533   -6.0655   26.0590 N   0  0  0  0  0  0
    6.9409   -5.3637   25.3513 C   0  0  0  0  0  0
    6.7475   -4.9802   24.0156 C   0  0  0  0  0  0
    7.6648   -4.2756   23.3068 N   0  0  0  0  0  0
    8.8131   -3.9216   23.9357 C   0  0  0  0  0  0
    9.0810   -4.2443   25.2665 C   0  0  0  0  0  0
    8.1303   -4.9719   25.9924 C   0  0  0  0  0  0
    8.4092   -5.3272   27.4469 C   0  0  0  0  0  0
    2.5202   -7.5418   24.5666 C   0  0  0  0  0  0
    0.0269   -6.0788   22.2547 O   0  0  0  0  0  0
   -0.7295   -4.9666   21.8828 N   0  0  0  0  0  0
   -2.4255   -4.2666   18.7495 C   0  0  0  0  0  0
   -3.3017   -3.3763   18.1352 C   0  0  0  0  0  0
   -6.0271    0.1476   18.5527 H   0  0  0  0  0  0
   -4.3890    0.1594   19.1954 H   0  0  0  0  0  0
   -5.7016   -0.6390   20.0923 H   0  0  0  0  0  0
   -4.7354   -2.0477   20.9092 H   0  0  0  0  0  0
   -3.2025   -3.6102   21.9933 H   0  0  0  0  0  0
   -1.5671   -7.2033   19.6435 H   0  0  0  0  0  0
   -0.2022   -9.1169   22.0819 H   0  0  0  0  0  0
    0.8179   -8.8229   20.6793 H   0  0  0  0  0  0
   -0.7805   -7.9070   23.8368 H   0  0  0  0  0  0
    1.0398   -6.7445   27.5175 H   0  0  0  0  0  0
    3.3437   -6.4294   27.6908 H   0  0  0  0  0  0
    4.1940   -7.7627   26.9370 H   0  0  0  0  0  0
    6.2803   -6.8494   26.6052 H   0  0  0  0  0  0
    5.8366   -5.2257   23.4894 H   0  0  0  0  0  0
    9.5282   -3.3608   23.3518 H   0  0  0  0  0  0
   10.0096   -3.9318   25.7217 H   0  0  0  0  0  0
    9.3912   -4.9804   27.7709 H   0  0  0  0  0  0
    8.3752   -6.4082   27.5871 H   0  0  0  0  0  0
    7.6620   -4.8731   28.0984 H   0  0  0  0  0  0
    3.4980   -7.6186   24.1129 H   0  0  0  0  0  0
   -1.7850   -4.8767   18.1294 H   0  0  0  0  0  0
   -3.3111   -3.3298   17.0568 H   0  0  0  0  0  0
  1  2  1  0  0  0
  1 34  1  0  0  0
  1 35  1  0  0  0
  1 36  1  0  0  0
  2  3  1  0  0  0
  3  4  2  0  0  0
  3 33  1  0  0  0
  4  5  1  0  0  0
  4 37  1  0  0  0
  5  6  2  0  0  0
  5 38  1  0  0  0
  6  7  1  0  0  0
  6 32  1  0  0  0
  7  8  1  0  0  0
  7 31  2  0  0  0
  8  9  2  0  0  0
  8 39  1  0  0  0
  9 10  1  0  0  0
  9 30  1  0  0  0
 10 11  1  0  0  0
 10 40  1  0  0  0
 10 41  1  0  0  0
 11 12  1  0  0  0
 12 13  2  0  0  0
 12 29  1  0  0  0
 13 14  1  0  0  0
 13 42  1  0  0  0
 14 15  1  0  0  0
 14 16  2  0  0  0
 16 17  1  0  0  0
 16 43  1  0  0  0
 17 18  1  0  0  0
 17 29  2  0  0  0
 18 19  1  0  0  0
 18 44  1  0  0  0
 18 45  1  0  0  0
 19 20  2  0  0  0
 19 21  1  0  0  0
 21 22  1  0  0  0
 21 46  1  0  0  0
 22 23  2  0  0  0
 22 27  1  0  0  0
 23 24  1  0  0  0
 23 47  1  0  0  0
 24 25  2  0  0  0
 25 26  1  0  0  0
 25 48  1  0  0  0
 26 27  2  0  0  0
 26 49  1  0  0  0
 27 28  1  0  0  0
 28 50  1  0  0  0
 28 51  1  0  0  0
 28 52  1  0  0  0
 29 53  1  0  0  0
 30 31  1  0  0  0
 32 33  2  0  0  0
 32 54  1  0  0  0
 33 55  1  0  0  0
M  END
> <s_m_entry_id>
2223

> <s_m_entry_name>
Compounds-withfrags-for-validation-docking.1850

> <s_m_Source_Path>
/home/rodolpho/data/melina/maestro/glide-dock_XP_5RGK_M-PRO_VALIDATION

> <s_m_Source_File>
glide-dock_XP_5RGK_M-PRO_VALIDATION_pv.maegz

> <i_m_Source_File_Index>
2223

> <CID>
CHO-MSK-6e55470f-22

> <Potency>
62.732

> <pIC50>
4.20251

> <Source>
Postera

> <smiles>
COc1ccc(-c2cc(COc3cc(Cl)cc(CC(=O)Nc4cnccc4C)c3)on2)cc1

> <Outcome>
Inactive

> <StandardizerResult>
Clear Stereo (ID: ClearStereo)
Wedge Clean (ID: WedgeClean)
Mesomerize (ID: Mesomerize)
Tautomerize (ID: Tautomerize)
Aromatize (ID: Aromatize)
Add Explicit Hydrogens (ID: AddExplicitH)
Neutralize (ID: Neutralize)
Clean 2D (ID: Clean2D)

> <chiral flag>
0

> <version>
0

> <i_lp_mmshare_version>
41011

> <i_f3d_flags>
0

> <s_epik_input>
W0NIM11PYzFbY0hdW2NIXWMoW2NIXVtjSF0xKS1jMltjSF1jKG9uMilbQ0gyXU9jM1tjSF1jKENsKVtjSF1jKFtjSF0zKVtDSDJdQyg9TylbTkhdYzRbY0hdbltjSF1bY0hdYzRbQ0gzXQ==

> <s_epik_cmdline>
J2VwaWtfcHl0aG9uJywgJy1waHQnLCAnMC41JywgJy1waCcsICc3LjQnLCAnLXRuJywgJzgnLCAnLW1hJywgJzIwMCcsICctaW1hZScsICc8aW5maWxlLm1hZT4nLCAnLW9tYWUnLCAnPG91dGZpbGUubWFlPic=

> <r_lp_tautomer_probability>
1.0

> <r_epik_Ionization_Penalty>
0.0032

> <r_epik_Ionization_Penalty_Charging>
0.0

> <r_epik_Ionization_Penalty_Neutral>
0.0032

> <r_epik_State_Penalty>
0.0

> <r_epik_Charging_Adjusted_Penalty>
0.0

> <i_epik_Tot_Q>
0

> <i_epik_Tot_abs_Q>
0

> <s_lp_Force_Field>
OPLS3

> <r_lp_Energy>
50.3106

> <b_lp_Chiralities_Consistent>
1

> <s_lp_Variant>
ligprep_COVID_compounds-withfrags-smallmolecules-forvalidation.maegz:67-1

> <i_glide_original_lignum>
241

> <s_i_glide_gridfile>
glide-grid_5RGK_M-PRO_COVID

> <i_i_glide_lignum>
241

> <r_i_docking_score>
-3.80134622758728

> <r_i_glide_ligand_efficiency>
-0.115192309926887

> <r_i_glide_ligand_efficiency_sa>
-0.369483288211376

> <r_i_glide_ligand_efficiency_ln>
-0.84539971869802

> <r_glide_XP_GScore>
-3.80134622758728

> <r_i_glide_gscore>
-3.80134622758728

> <r_i_glide_evdw>
-36.3737983703613

> <r_i_glide_ecoul>
-7.48048639297485

> <r_i_glide_energy>
-43.8542847633362

> <r_i_glide_einternal>
1.26010632514954

> <r_i_glide_emodel>
-59.0352435117721

> <r_glide_XP_HBond>
-0.956395843875494

> <i_i_glide_confnum>
1

> <i_i_glide_posenum>
10

> <r_i_glide_eff_state_penalty>
0.0

> <i_glide_XP_PoseRank>
1

> <MW>
463.13

> <cLogP>
5.47

> <TPSA>
86.48

> <Rotatable Bonds>
8

> <Fraction sp3>
0.16

> <HBA>
6

> <HBD>
1

> <s_epik_Chemistry_Notes>


> <Structure ID>


> <Submission Fragments>


$$$$
ligprep_COVID_compounds-withfrags-smallmolecules-forvalidation.maegz:6
                    3D
 Structure written by MMmdl.
 57 60  0  0  1  0            999 V2000
    1.3362    1.5466   20.7719 C   0  0  0  0  0  0
    2.6163    2.4198   20.8440 C   0  0  2  0  0  0
    3.8176    1.5678   20.3907 C   0  0  0  0  0  0
    4.1036    1.4368   19.0219 C   0  0  0  0  0  0
    5.1715    0.6811   18.5641 C   0  0  0  0  0  0
    5.9844    0.0291   19.4749 C   0  0  0  0  0  0
    5.7301    0.1239   20.8410 C   0  0  0  0  0  0
    6.5982   -0.5675   21.6513 O   0  0  0  0  0  0
    4.6391    0.8905   21.3335 C   0  0  0  0  0  0
    4.3583    0.9682   22.8275 C   0  0  0  0  0  0
    5.0474    0.3610   23.6503 O   0  0  0  0  0  0
    3.2194    1.8346   23.2327 C   0  0  0  0  0  0
    2.9008    2.9960   22.2716 C   0  0  2  0  0  0
    1.8075    3.9783   22.8189 C   0  0  1  0  0  0
    1.6805    3.9704   24.3662 C   0  0  1  0  0  0
    0.7717    5.0851   24.9613 C   0  0  1  0  0  0
   -0.6699    4.9720   24.3673 N   0  3  0  0  0  0
   -1.6689    4.3828   25.3836 C   0  0  0  0  0  0
   -0.8219    4.2483   23.0094 C   0  0  0  0  0  0
    0.8308    4.9882   26.4886 C   0  0  0  0  0  0
    0.6562    6.1639   26.9965 O   0  5  0  0  0  0
    1.0582    3.8433   27.2018 C   0  0  0  0  0  0
    1.1427    3.8986   28.6627 C   0  0  0  0  0  0
    0.4840    2.9443   29.3302 N   0  0  0  0  0  0
    1.7531    4.7844   29.2588 O   0  0  0  0  0  0
    1.1777    2.5391   26.4745 C   0  0  0  0  0  0
    1.0630    1.4725   27.0876 O   0  0  0  0  0  0
    1.3847    2.5323   24.9128 C   0  0  2  0  0  0
    2.5370    1.6199   24.3952 C   0  0  0  0  0  0
    2.7323    0.5210   25.1869 O   0  0  0  0  0  0
    0.1800    2.0116   24.3702 O   0  0  0  0  0  0
    2.0490    5.2851   22.3243 O   0  0  0  0  0  0
    2.3747    3.5098   19.9650 O   0  0  0  0  0  0
    1.3891    0.6991   21.4562 H   0  0  0  0  0  0
    1.1915    1.1358   19.7712 H   0  0  0  0  0  0
    0.4290    2.0991   21.0150 H   0  0  0  0  0  0
    3.4824    1.9303   18.2889 H   0  0  0  0  0  0
    5.3673    0.6014   17.5049 H   0  0  0  0  0  0
    6.8163   -0.5572   19.1119 H   0  0  0  0  0  0
    7.3878   -0.8589   21.1906 H   0  0  0  0  0  0
    3.8302    3.5709   22.2209 H   0  0  0  0  0  0
    0.8326    3.7125   22.4152 H   0  0  0  0  0  0
    2.6815    4.2285   24.7263 H   0  0  0  0  0  0
    1.1788    6.0452   24.6305 H   0  0  0  0  0  0
   -1.3635    3.3546   25.5843 H   0  0  0  0  0  0
   -2.6617    4.4292   24.9344 H   0  0  0  0  0  0
   -1.6254    4.9985   26.2819 H   0  0  0  0  0  0
   -0.5722    3.1967   23.1578 H   0  0  0  0  0  0
   -0.1516    4.7238   22.2950 H   0  0  0  0  0  0
   -1.8590    4.3694   22.6949 H   0  0  0  0  0  0
    0.0090    2.2073   28.8303 H   0  0  0  0  0  0
    0.4884    2.9397   30.3395 H   0  0  0  0  0  0
    3.3450   -0.0815   24.7569 H   0  0  0  0  0  0
    0.1788    2.1774   23.4240 H   0  0  0  0  0  0
    2.9100    5.2971   21.8991 H   0  0  0  0  0  0
    3.2129    3.9362   19.7715 H   0  0  0  0  0  0
   -0.9637    5.9250   24.2035 H   0  0  0  0  0  0
  1  2  1  0  0  0
  1 34  1  0  0  0
  1 35  1  0  0  0
  1 36  1  0  0  0
  2  3  1  0  0  0
  2 33  1  0  0  0
  2 13  1  0  0  0
  3  4  2  0  0  0
  3  9  1  0  0  0
  4  5  1  0  0  0
  4 37  1  0  0  0
  5  6  2  0  0  0
  5 38  1  0  0  0
  6  7  1  0  0  0
  6 39  1  0  0  0
  7  8  1  0  0  0
  7  9  2  0  0  0
  8 40  1  0  0  0
  9 10  1  0  0  0
 10 11  2  0  0  0
 10 12  1  0  0  0
 12 13  1  0  0  0
 12 29  2  0  0  0
 13 14  1  0  0  0
 13 41  1  0  0  0
 14 15  1  0  0  0
 14 32  1  0  0  0
 14 42  1  0  0  0
 15 16  1  0  0  0
 15 28  1  0  0  0
 15 43  1  0  0  0
 16 17  1  0  0  0
 16 20  1  0  0  0
 16 44  1  0  0  0
 17 18  1  0  0  0
 17 19  1  0  0  0
 17 57  1  0  0  0
 18 45  1  0  0  0
 18 46  1  0  0  0
 18 47  1  0  0  0
 19 48  1  0  0  0
 19 49  1  0  0  0
 19 50  1  0  0  0
 20 21  1  0  0  0
 20 22  2  0  0  0
 22 23  1  0  0  0
 22 26  1  0  0  0
 23 24  1  0  0  0
 23 25  2  0  0  0
 24 51  1  0  0  0
 24 52  1  0  0  0
 26 27  2  0  0  0
 26 28  1  0  0  0
 28 29  1  0  0  0
 28 31  1  0  0  0
 29 30  1  0  0  0
 30 53  1  0  0  0
 31 54  1  0  0  0
 32 55  1  0  0  0
 33 56  1  0  0  0
M  CHG  2  17   1  21  -1
M  END
> <s_m_entry_id>
2255

> <s_m_entry_name>
Compounds-withfrags-for-validation-docking.1911

> <s_m_Source_Path>
/home/rodolpho/data/melina/maestro/glide-dock_XP_5RGK_M-PRO_VALIDATION

> <s_m_Source_File>
glide-dock_XP_5RGK_M-PRO_VALIDATION_pv.maegz

> <i_m_Source_File_Index>
2255

> <CID>
Oxitetracyclin

> <Potency>
15.15

> <pIC50>
4.81959

> <Source>
https://doi.org/10.1101/2020.03.23.004580

> <smiles>
C(C1(C2=C(C(=C(C(O[H])=C2C(O[H])=C2C1(C(C1(C(N(C([H])([H])[H])C([H])([H])[H])([H])C(=O)C(=C(N([H])[H])O[H])C(=O)C1(C2=O)O[H])[H])(O[H])[H])[H])[H])[H])[H])O[H])([H])([H])[H]

> <Outcome>
Inactive

> <StandardizerResult>
Clear Stereo (ID: ClearStereo)
Wedge Clean (ID: WedgeClean)
Mesomerize (ID: Mesomerize)
Tautomerize (ID: Tautomerize)
Aromatize (ID: Aromatize)
Add Explicit Hydrogens (ID: AddExplicitH)
Neutralize (ID: Neutralize)
Clean 2D (ID: Clean2D)

> <chiral flag>
0

> <version>
0

> <i_lp_mmshare_version>
41011

> <i_f3d_flags>
0

> <s_epik_input>
W09IXWMxW2NIXVtjSF1bY0hdYyhbQ0BdMihbQ0gzXSlbT0hdKWMxQyg9TylDKD1DM1tPSF0pW0NAQEhdMltDQEhdKFtPSF0pW0NASF0oW0NAQF0zNFtPSF0pW0NAQEhdKE4oW0NIM10pW0NIM10pQyg9TylbQ0BIXShDND1PKUMoPU8pW05IMl0=

> <s_epik_cmdline>
J2VwaWtfcHl0aG9uJywgJy1waHQnLCAnMC41JywgJy1waCcsICc3LjQnLCAnLXRuJywgJzgnLCAnLW1hJywgJzIwMCcsICctaW1hZScsICc8aW5maWxlLm1hZT4nLCAnLW9tYWUnLCAnPG91dGZpbGUubWFlPic=

> <r_epik_Ionization_Penalty>
0.6144

> <r_epik_Ionization_Penalty_Charging>
0.5087

> <r_epik_Ionization_Penalty_Neutral>
0.1057

> <r_epik_State_Penalty>
0.5157

> <r_epik_Charging_Adjusted_Penalty>
1.02439

> <i_epik_Tot_Q>
0

> <i_epik_Tot_abs_Q>
2

> <s_lp_Force_Field>
OPLS3

> <r_lp_Energy>
53.1483

> <b_lp_Chiralities_Consistent>
1

> <s_lp_Variant>
ligprep_COVID_compounds-withfrags-smallmolecules-forvalidation.maegz:6-28

> <i_glide_original_lignum>
80

> <s_i_glide_gridfile>
glide-grid_5RGK_M-PRO_COVID

> <i_i_glide_lignum>
80

> <r_i_docking_score>
-3.7849624109173

> <r_i_glide_ligand_efficiency>
-0.114695830633858

> <r_i_glide_ligand_efficiency_sa>
-0.367890813836707

> <r_i_glide_ligand_efficiency_ln>
-0.841756042701478

> <r_glide_XP_GScore>
-4.3006694109173

> <r_i_glide_gscore>
-4.3006694109173

> <r_i_glide_evdw>
-17.0650959014893

> <r_i_glide_ecoul>
-8.4760799407959

> <r_i_glide_energy>
-25.5411758422852

> <r_i_glide_einternal>
3.68527770042419

> <r_i_glide_emodel>
-29.2054388743688

> <r_glide_XP_HBond>
-1.96072563145582

> <i_i_glide_confnum>
1

> <i_i_glide_posenum>
10

> <r_i_glide_eff_state_penalty>
0.515707

> <i_glide_XP_PoseRank>
1

> <r_lp_tautomer_probability>


> <s_epik_Chemistry_Notes>


> <MW>


> <cLogP>


> <TPSA>


> <Rotatable Bonds>


> <Fraction sp3>


> <HBA>


> <HBD>


> <Structure ID>


> <Submission Fragments>


$$$$
ligprep_COVID_compounds-withfrags-smallmolecules-forvalidation.maegz:63
                    3D
 Structure written by MMmdl.
 42 44  0  0  1  0            999 V2000
   -0.9734    3.9741   13.9800 C   0  0  0  0  0  0
   -0.3450    4.3115   15.2073 O   0  0  0  0  0  0
    0.8892    4.9242   15.1579 C   0  0  0  0  0  0
    1.4856    5.3822   13.9551 C   0  0  0  0  0  0
    2.7494    5.9932   13.9719 C   0  0  0  0  0  0
    3.4313    6.1547   15.1890 C   0  0  0  0  0  0
    2.8607    5.6895   16.3857 C   0  0  0  0  0  0
    1.5815    5.0802   16.3813 C   0  0  0  0  0  0
    0.9618    4.6366   17.5290 O   0  0  0  0  0  0
    1.8090    4.1963   18.5823 C   0  0  0  0  0  0
    0.9645    3.5537   19.7002 C   0  0  0  0  0  0
    1.7159    2.4832   20.4998 C   0  0  0  0  0  0
    1.0976    1.5247   20.9702 O   0  0  0  0  0  0
    3.0401    2.6361   20.6475 N   0  0  0  0  0  0
    3.9050    1.6430   21.1481 C   0  0  0  0  0  0
    3.9627    1.3785   22.5294 C   0  0  0  0  0  0
    4.7928    0.4651   23.0697 N   0  0  0  0  0  0
    5.6089   -0.2173   22.2384 C   0  0  0  0  0  0
    5.6343   -0.0243   20.8416 C   0  0  0  0  0  0
    6.4799   -0.7800   20.0069 C   0  0  0  0  0  0
    6.4749   -0.5625   18.6146 C   0  0  0  0  0  0
    5.6329    0.4162   18.0562 C   0  0  0  0  0  0
    4.7873    1.1702   18.8881 C   0  0  0  0  0  0
    4.7739    0.9474   20.2840 C   0  0  0  0  0  0
   -1.8890    3.4206   14.1834 H   0  0  0  0  0  0
   -0.3314    3.3358   13.3715 H   0  0  0  0  0  0
   -1.2431    4.8653   13.4130 H   0  0  0  0  0  0
    0.9890    5.2755   13.0015 H   0  0  0  0  0  0
    3.1953    6.3380   13.0508 H   0  0  0  0  0  0
    4.3959    6.6361   15.2052 H   0  0  0  0  0  0
    3.4189    5.8278   17.3003 H   0  0  0  0  0  0
    2.5228    3.4859   18.1634 H   0  0  0  0  0  0
    2.3732    5.0300   19.0057 H   0  0  0  0  0  0
    0.5819    4.3194   20.3748 H   0  0  0  0  0  0
    0.0926    3.0663   19.2662 H   0  0  0  0  0  0
    3.4978    3.4155   20.1720 H   0  0  0  0  0  0
    3.3194    1.9072   23.2170 H   0  0  0  0  0  0
    6.2466   -0.9561   22.7044 H   0  0  0  0  0  0
    7.1336   -1.5310   20.4266 H   0  0  0  0  0  0
    7.1124   -1.1587   17.9793 H   0  0  0  0  0  0
    5.6148    0.5843   16.9878 H   0  0  0  0  0  0
    4.1487    1.9179   18.4416 H   0  0  0  0  0  0
  1  2  1  0  0  0
  1 25  1  0  0  0
  1 26  1  0  0  0
  1 27  1  0  0  0
  2  3  1  0  0  0
  3  4  2  0  0  0
  3  8  1  0  0  0
  4  5  1  0  0  0
  4 28  1  0  0  0
  5  6  2  0  0  0
  5 29  1  0  0  0
  6  7  1  0  0  0
  6 30  1  0  0  0
  7  8  2  0  0  0
  7 31  1  0  0  0
  8  9  1  0  0  0
  9 10  1  0  0  0
 10 11  1  0  0  0
 10 32  1  0  0  0
 10 33  1  0  0  0
 11 12  1  0  0  0
 11 34  1  0  0  0
 11 35  1  0  0  0
 12 13  2  0  0  0
 12 14  1  0  0  0
 14 15  1  0  0  0
 14 36  1  0  0  0
 15 16  2  0  0  0
 15 24  1  0  0  0
 16 17  1  0  0  0
 16 37  1  0  0  0
 17 18  2  0  0  0
 18 19  1  0  0  0
 18 38  1  0  0  0
 19 20  2  0  0  0
 19 24  1  0  0  0
 20 21  1  0  0  0
 20 39  1  0  0  0
 21 22  2  0  0  0
 21 40  1  0  0  0
 22 23  1  0  0  0
 22 41  1  0  0  0
 23 24  2  0  0  0
 23 42  1  0  0  0
M  END
> <s_m_entry_id>
2273

> <s_m_entry_name>
Compounds-withfrags-for-validation-docking.1854

> <s_m_Source_Path>
/home/rodolpho/data/melina/maestro/glide-dock_XP_5RGK_M-PRO_VALIDATION

> <s_m_Source_File>
glide-dock_XP_5RGK_M-PRO_VALIDATION_pv.maegz

> <i_m_Source_File_Index>
2273

> <CID>
MAR-UCB-f313ec4d-3

> <Potency>
93.5555

> <pIC50>
4.02893

> <Source>
Postera

> <smiles>
COc1ccccc1OCCC(=O)Nc1cncc2ccccc12

> <Outcome>
Inactive

> <StandardizerResult>
Clear Stereo (ID: ClearStereo)
Wedge Clean (ID: WedgeClean)
Mesomerize (ID: Mesomerize)
Tautomerize (ID: Tautomerize)
Aromatize (ID: Aromatize)
Add Explicit Hydrogens (ID: AddExplicitH)
Neutralize (ID: Neutralize)
Clean 2D (ID: Clean2D)

> <chiral flag>
0

> <version>
0

> <i_lp_mmshare_version>
41011

> <i_f3d_flags>
0

> <s_epik_input>
W0NIM11PYzFbY0hdW2NIXVtjSF1bY0hdYzFPW0NIMl1bQ0gyXUMoPU8pW05IXWMoW2NIXW5bY0hdMiljKGMyMylbY0hdW2NIXVtjSF1bY0hdMw==

> <s_epik_cmdline>
J2VwaWtfcHl0aG9uJywgJy1waHQnLCAnMC41JywgJy1waCcsICc3LjQnLCAnLXRuJywgJzgnLCAnLW1hJywgJzIwMCcsICctaW1hZScsICc8aW5maWxlLm1hZT4nLCAnLW9tYWUnLCAnPG91dGZpbGUubWFlPic=

> <r_lp_tautomer_probability>
1.0

> <r_epik_Ionization_Penalty>
0.0032

> <r_epik_Ionization_Penalty_Charging>
0.0

> <r_epik_Ionization_Penalty_Neutral>
0.0032

> <r_epik_State_Penalty>
0.0

> <r_epik_Charging_Adjusted_Penalty>
0.0

> <i_epik_Tot_Q>
0

> <i_epik_Tot_abs_Q>
0

> <s_lp_Force_Field>
OPLS3

> <r_lp_Energy>
45.5967

> <b_lp_Chiralities_Consistent>
1

> <s_lp_Variant>
ligprep_COVID_compounds-withfrags-smallmolecules-forvalidation.maegz:63-1

> <i_glide_original_lignum>
236

> <s_i_glide_gridfile>
glide-grid_5RGK_M-PRO_COVID

> <i_i_glide_lignum>
236

> <r_i_docking_score>
-3.77234417457947

> <r_i_glide_ligand_efficiency>
-0.157181007274145

> <r_i_glide_ligand_efficiency_sa>
-0.453388479922944

> <r_i_glide_ligand_efficiency_ln>
-0.902895062571588

> <r_glide_XP_GScore>
-3.77234417457947

> <r_i_glide_gscore>
-3.77234417457947

> <r_i_glide_evdw>
-33.8298873901367

> <r_i_glide_ecoul>
-9.28725242614746

> <r_i_glide_energy>
-43.1171398162842

> <r_i_glide_einternal>
1.08210897445679

> <r_i_glide_emodel>
-57.0755484146819

> <r_glide_XP_HBond>
-0.9975

> <i_i_glide_confnum>
1

> <i_i_glide_posenum>
6

> <r_i_glide_eff_state_penalty>
0.0

> <i_glide_XP_PoseRank>
1

> <MW>
322.13

> <cLogP>
3.65

> <TPSA>
60.45

> <Rotatable Bonds>
6

> <Fraction sp3>
0.16

> <HBA>
4

> <HBD>
1

> <s_epik_Chemistry_Notes>


> <Structure ID>


> <Submission Fragments>


$$$$
ligprep_COVID_compounds-withfrags-smallmolecules-forvalidation.maegz:41
                    3D
 Structure written by MMmdl.
 73 77  0  0  1  0            999 V2000
    5.8888    0.4337   23.4241 O   0  0  0  0  0  0
    6.0046    1.4353   22.7181 C   0  0  0  0  0  0
    6.9183    2.3881   22.9708 N   0  0  0  0  0  0
    7.6820    2.4409   24.2182 C   0  0  0  0  0  0
    8.8484    3.4576   24.2188 C   0  0  0  0  0  0
   10.2133    2.9388   23.7707 C   0  0  0  0  0  0
   10.6853    1.6673   24.1707 C   0  0  0  0  0  0
   11.9560    1.2186   23.7627 C   0  0  0  0  0  0
   12.7755    2.0429   22.9703 C   0  0  0  0  0  0
   12.3300    3.3217   22.5904 C   0  0  0  0  0  0
   13.1269    4.1235   21.8442 F   0  0  0  0  0  0
   11.0550    3.7651   22.9927 C   0  0  0  0  0  0
    5.0203    1.6703   21.5428 C   0  0  1  0  0  0
    5.3907    0.6850   20.4613 C   0  0  0  0  0  0
    5.5992   -0.6926   20.6721 C   0  0  0  0  0  0
    5.9749   -1.5131   19.6015 C   0  0  0  0  0  0
    6.1074   -0.9580   18.3210 C   0  0  0  0  0  0
    5.9357    0.3526   18.0816 N   0  0  0  0  0  0
    5.5751    1.1292   19.1257 C   0  0  0  0  0  0
    3.5740    1.7232   21.9261 N   0  0  0  0  0  0
    2.6034    1.8363   20.9713 C   0  0  0  0  0  0
    2.8495    1.8799   19.7708 O   0  0  0  0  0  0
    1.1731    2.0017   21.3418 C   0  0  0  0  0  0
    0.3446    1.3243   22.1996 C   0  0  0  0  0  0
   -0.9500    1.8956   22.0653 C   0  0  0  0  0  0
   -0.8337    2.8638   21.1120 C   0  0  0  0  0  0
    0.4427    2.9251   20.6491 O   0  0  0  0  0  0
    3.2753    2.1669   23.2529 C   0  0  0  0  0  0
    3.5049    3.5137   23.6140 C   0  0  0  0  0  0
    3.1724    3.9687   24.9040 C   0  0  0  0  0  0
    2.5900    3.0877   25.8361 C   0  0  0  0  0  0
    2.3751    1.7388   25.4883 C   0  0  0  0  0  0
    1.6715    0.7928   26.4363 C   0  0  0  0  0  0
   -0.0427    0.6216   25.8424 S   0  0  0  0  0  0
   -0.5693   -1.1054   26.1144 C   0  0  0  0  0  0
   -1.5066   -1.5064   24.9614 C   0  0  0  0  0  0
   -1.8890   -2.9918   25.0191 C   0  0  0  0  0  0
   -0.7058   -3.7816   25.0141 O   0  0  0  0  0  0
    0.0864   -3.5632   26.1742 C   0  0  0  0  0  0
    0.5915   -2.1118   26.2002 C   0  0  0  0  0  0
    2.7593    1.2733   24.2139 C   0  0  0  0  0  0
    6.9074    3.2103   22.3736 H   0  0  0  0  0  0
    6.9646    2.7706   24.9708 H   0  0  0  0  0  0
    7.9935    1.4470   24.5376 H   0  0  0  0  0  0
    8.5708    4.3364   23.6353 H   0  0  0  0  0  0
    8.9845    3.8158   25.2399 H   0  0  0  0  0  0
   10.0866    1.0231   24.7961 H   0  0  0  0  0  0
   12.3025    0.2408   24.0608 H   0  0  0  0  0  0
   13.7530    1.7022   22.6605 H   0  0  0  0  0  0
   10.7227    4.7487   22.6931 H   0  0  0  0  0  0
    5.2217    2.6363   21.1346 H   0  0  0  0  0  0
    5.4668   -1.1459   21.6422 H   0  0  0  0  0  0
    6.1300   -2.5637   19.7646 H   0  0  0  0  0  0
    6.3756   -1.5753   17.4765 H   0  0  0  0  0  0
    5.4409    2.1724   18.8812 H   0  0  0  0  0  0
    0.6202    0.5071   22.8468 H   0  0  0  0  0  0
   -1.8525    1.6232   22.5919 H   0  0  0  0  0  0
   -1.5232    3.5602   20.6574 H   0  0  0  0  0  0
    3.9303    4.2033   22.8971 H   0  0  0  0  0  0
    3.3393    5.0023   25.1678 H   0  0  0  0  0  0
    2.2970    3.4542   26.8094 H   0  0  0  0  0  0
    2.2245   -0.1423   26.4342 H   0  0  0  0  0  0
    1.6718    1.1731   27.4582 H   0  0  0  0  0  0
   -1.1235   -1.1403   27.0538 H   0  0  0  0  0  0
   -2.4057   -0.8903   24.9772 H   0  0  0  0  0  0
   -1.0156   -1.3090   24.0066 H   0  0  0  0  0  0
   -2.4892   -3.2086   25.9039 H   0  0  0  0  0  0
   -2.4929   -3.2563   24.1505 H   0  0  0  0  0  0
   -0.4922   -3.7879   27.0722 H   0  0  0  0  0  0
    0.9303   -4.2535   26.1670 H   0  0  0  0  0  0
    1.2775   -1.9528   25.3707 H   0  0  0  0  0  0
    1.1581   -1.9581   27.1185 H   0  0  0  0  0  0
    2.6071    0.2362   23.9574 H   0  0  0  0  0  0
  1  2  2  0  0  0
  2  3  1  0  0  0
  2 13  1  0  0  0
  3  4  1  0  0  0
  3 42  1  0  0  0
  4  5  1  0  0  0
  4 43  1  0  0  0
  4 44  1  0  0  0
  5  6  1  0  0  0
  5 45  1  0  0  0
  5 46  1  0  0  0
  6  7  2  0  0  0
  6 12  1  0  0  0
  7  8  1  0  0  0
  7 47  1  0  0  0
  8  9  2  0  0  0
  8 48  1  0  0  0
  9 10  1  0  0  0
  9 49  1  0  0  0
 10 11  1  0  0  0
 10 12  2  0  0  0
 12 50  1  0  0  0
 13 14  1  0  0  0
 13 20  1  0  0  0
 13 51  1  0  0  0
 14 15  2  0  0  0
 14 19  1  0  0  0
 15 16  1  0  0  0
 15 52  1  0  0  0
 16 17  2  0  0  0
 16 53  1  0  0  0
 17 18  1  0  0  0
 17 54  1  0  0  0
 18 19  2  0  0  0
 19 55  1  0  0  0
 20 21  1  0  0  0
 20 28  1  0  0  0
 21 22  2  0  0  0
 21 23  1  0  0  0
 23 24  2  0  0  0
 23 27  1  0  0  0
 24 25  1  0  0  0
 24 56  1  0  0  0
 25 26  2  0  0  0
 25 57  1  0  0  0
 26 27  1  0  0  0
 26 58  1  0  0  0
 28 29  2  0  0  0
 28 41  1  0  0  0
 29 30  1  0  0  0
 29 59  1  0  0  0
 30 31  2  0  0  0
 30 60  1  0  0  0
 31 32  1  0  0  0
 31 61  1  0  0  0
 32 33  1  0  0  0
 32 41  2  0  0  0
 33 34  1  0  0  0
 33 62  1  0  0  0
 33 63  1  0  0  0
 34 35  1  0  0  0
 35 36  1  0  0  0
 35 40  1  0  0  0
 35 64  1  0  0  0
 36 37  1  0  0  0
 36 65  1  0  0  0
 36 66  1  0  0  0
 37 38  1  0  0  0
 37 67  1  0  0  0
 37 68  1  0  0  0
 38 39  1  0  0  0
 39 40  1  0  0  0
 39 69  1  0  0  0
 39 70  1  0  0  0
 40 71  1  0  0  0
 40 72  1  0  0  0
 41 73  1  0  0  0
M  END
> <s_m_entry_id>
2282

> <s_m_entry_name>
Compounds-withfrags-for-validation-docking.1876

> <s_m_Source_Path>
/home/rodolpho/data/melina/maestro/glide-dock_XP_5RGK_M-PRO_VALIDATION

> <s_m_Source_File>
glide-dock_XP_5RGK_M-PRO_VALIDATION_pv.maegz

> <i_m_Source_File_Index>
2282

> <CID>
ALP-POS-b0bc6a46-13

> <Potency>
99.5

> <pIC50>
4.00218

> <Source>
Postera

> <smiles>
O=C(NCCc1cccc(F)c1)C(c1cccnc1)N(C(=O)c1ccco1)c1cccc(CSC2CCOCC2)c1

> <Outcome>
Inactive

> <StandardizerResult>
Clear Stereo (ID: ClearStereo)
Wedge Clean (ID: WedgeClean)
Mesomerize (ID: Mesomerize)
Tautomerize (ID: Tautomerize)
Aromatize (ID: Aromatize)
Add Explicit Hydrogens (ID: AddExplicitH)
Neutralize (ID: Neutralize)
Clean 2D (ID: Clean2D)

> <chiral flag>
0

> <version>
0

> <i_lp_mmshare_version>
41011

> <i_f3d_flags>
0

> <s_epik_input>
RmMoW2NIXTEpW2NIXVtjSF1bY0hdYzFbQ0gyXVtDSDJdW05IXUMoPU8pW0NAQEhdKGMyW2NIXVtjSF1bY0hdbltjSF0yKU4oQyg9TyljM1tjSF1bY0hdW2NIXW8zKWM0W2NIXVtjSF1bY0hdYyhbY0hdNClbQ0gyXVNbQ0hdNVtDSDJdW0NIMl1PW0NIMl1bQ0gyXTU=

> <s_epik_cmdline>
J2VwaWtfcHl0aG9uJywgJy1waHQnLCAnMC41JywgJy1waCcsICc3LjQnLCAnLXRuJywgJzgnLCAnLW1hJywgJzIwMCcsICctaW1hZScsICc8aW5maWxlLm1hZT4nLCAnLW9tYWUnLCAnPG91dGZpbGUubWFlPic=

> <r_lp_tautomer_probability>
1.0

> <r_epik_Ionization_Penalty>
6.0E-4

> <r_epik_Ionization_Penalty_Charging>
0.0

> <r_epik_Ionization_Penalty_Neutral>
6.0E-4

> <r_epik_State_Penalty>
0.0

> <r_epik_Charging_Adjusted_Penalty>
0.0

> <i_epik_Tot_Q>
0

> <i_epik_Tot_abs_Q>
0

> <s_lp_Force_Field>
OPLS3

> <r_lp_Energy>
66.6856

> <b_lp_Chiralities_Consistent>
1

> <s_lp_Variant>
ligprep_COVID_compounds-withfrags-smallmolecules-forvalidation.maegz:41-1

> <i_glide_original_lignum>
187

> <s_i_glide_gridfile>
glide-grid_5RGK_M-PRO_COVID

> <i_i_glide_lignum>
187

> <r_i_docking_score>
-3.76531181063671

> <r_i_glide_ligand_efficiency>
-0.0918368734301637

> <r_i_glide_ligand_efficiency_sa>
-0.316673489872741

> <r_i_glide_ligand_efficiency_ln>
-0.798823431009805

> <r_glide_XP_GScore>
-3.76531181063671

> <r_i_glide_gscore>
-3.76531181063671

> <r_i_glide_evdw>
-39.4350166320801

> <r_i_glide_ecoul>
-9.29105091094971

> <r_i_glide_energy>
-48.7260675430298

> <r_i_glide_einternal>
9.99563217163086

> <r_i_glide_emodel>
-65.32120006132

> <r_glide_XP_HBond>
-0.7

> <i_i_glide_confnum>
7

> <i_i_glide_posenum>
40

> <r_i_glide_eff_state_penalty>
0.0

> <i_glide_XP_PoseRank>
1

> <MW>
573.21

> <cLogP>
5.97

> <TPSA>
84.67

> <Rotatable Bonds>
11

> <Fraction sp3>
0.28

> <HBA>
6

> <HBD>
1

> <s_epik_Chemistry_Notes>


> <Structure ID>


> <Submission Fragments>


$$$$
ligprep_COVID_compounds-withfrags-smallmolecules-forvalidation.maegz:56
                    3D
 Structure written by MMmdl.
 36 39  0  0  1  0            999 V2000
    9.7725   -2.5639   23.7968 O   0  0  0  0  0  0
    8.7352   -3.1149   24.1719 C   0  0  0  0  0  0
    7.5731   -2.4611   24.3513 N   0  0  0  0  0  0
    7.2210   -1.2377   23.7524 C   0  0  0  0  0  0
    6.3786   -1.1827   22.7349 N   0  0  0  0  0  0
    6.2853    0.1489   22.4268 N   0  0  0  0  0  0
    7.0355    0.9797   23.2516 C   0  0  0  0  0  0
    7.2620    2.3488   23.3696 C   0  0  0  0  0  0
    8.1436    2.7558   24.3840 C   0  0  0  0  0  0
    8.7264    1.8893   25.2458 N   0  0  0  0  0  0
    8.4653    0.5578   25.1707 C   0  0  0  0  0  0
    9.1736   -0.5637   26.5356 Br  0  0  0  0  0  0
    7.6373    0.0624   24.1270 C   0  0  0  0  0  0
    8.7544   -4.6246   24.5012 C   0  0  1  0  0  0
    9.7546   -4.9670   25.6131 C   0  0  0  0  0  0
    9.1763   -4.5573   26.9706 C   0  0  0  0  0  0
    7.9431   -5.2042   27.2659 O   0  0  0  0  0  0
    7.0399   -5.3670   26.2387 C   0  0  0  0  0  0
    5.7502   -5.8316   26.5656 C   0  0  0  0  0  0
    4.7951   -6.0685   25.5581 C   0  0  0  0  0  0
    5.1253   -5.8352   24.2109 C   0  0  0  0  0  0
    3.9757   -6.1638   22.9716 Cl  0  0  0  0  0  0
    6.4061   -5.3637   23.8706 C   0  0  0  0  0  0
    7.3676   -5.1314   24.8784 C   0  0  0  0  0  0
    6.7966   -3.0493   24.6174 H   0  0  0  0  0  0
    5.7080    0.4543   21.6564 H   0  0  0  0  0  0
    6.7839    3.0388   22.6904 H   0  0  0  0  0  0
    8.3822    3.8009   24.5154 H   0  0  0  0  0  0
    9.0716   -5.1404   23.5934 H   0  0  0  0  0  0
    9.9462   -6.0413   25.6172 H   0  0  0  0  0  0
   10.7189   -4.4878   25.4399 H   0  0  0  0  0  0
    9.8852   -4.8012   27.7623 H   0  0  0  0  0  0
    9.0275   -3.4793   27.0097 H   0  0  0  0  0  0
    5.5007   -6.0294   27.5974 H   0  0  0  0  0  0
    3.8171   -6.4431   25.8216 H   0  0  0  0  0  0
    6.6540   -5.1864   22.8345 H   0  0  0  0  0  0
  1  2  2  0  0  0
  2  3  1  0  0  0
  2 14  1  0  0  0
  3 25  1  0  0  0
  3  4  1  0  0  0
  4 13  1  0  0  0
  4  5  2  0  0  0
  5  6  1  0  0  0
  6 26  1  0  0  0
  6  7  1  0  0  0
  7 13  2  0  0  0
  7  8  1  0  0  0
  8 27  1  0  0  0
  8  9  2  0  0  0
  9 28  1  0  0  0
  9 10  1  0  0  0
 10 11  2  0  0  0
 11 12  1  0  0  0
 11 13  1  0  0  0
 14 15  1  0  0  0
 14 24  1  0  0  0
 14 29  1  0  0  0
 15 16  1  0  0  0
 15 30  1  0  0  0
 15 31  1  0  0  0
 16 17  1  0  0  0
 16 32  1  0  0  0
 16 33  1  0  0  0
 17 18  1  0  0  0
 18 19  2  0  0  0
 18 24  1  0  0  0
 19 20  1  0  0  0
 19 34  1  0  0  0
 20 21  2  0  0  0
 20 35  1  0  0  0
 21 22  1  0  0  0
 21 23  1  0  0  0
 23 24  2  0  0  0
 23 36  1  0  0  0
M  END
> <s_m_entry_id>
2321

> <s_m_entry_name>
Compounds-withfrags-for-validation-docking.1861

> <s_m_Source_Path>
/home/rodolpho/data/melina/maestro/glide-dock_XP_5RGK_M-PRO_VALIDATION

> <s_m_Source_File>
glide-dock_XP_5RGK_M-PRO_VALIDATION_pv.maegz

> <i_m_Source_File_Index>
2321

> <CID>
JAG-UCB-52b62a6f-15

> <Potency>
99.5

> <pIC50>
4.00218

> <Source>
Postera

> <smiles>
O=C(Nc1n[nH]c2ccnc(Br)c12)C1CCOc2ccc(Cl)cc21

> <Outcome>
Inactive

> <StandardizerResult>
Clear Stereo (ID: ClearStereo)
Wedge Clean (ID: WedgeClean)
Mesomerize (ID: Mesomerize)
Tautomerize (ID: Tautomerize)
Aromatize (ID: Aromatize)
Add Explicit Hydrogens (ID: AddExplicitH)
Neutralize (ID: Neutralize)
Clean 2D (ID: Clean2D)

> <chiral flag>
0

> <version>
0

> <i_lp_mmshare_version>
41011

> <i_f3d_flags>
0

> <s_epik_input>
W2NIXTFbY0hdYyhDbClbY0hdYyhjMTIpW0NASF0oW0NIMl1bQ0gyXU8yKUMoPU8pW05IXWMoW25IXW4zKWMoYzM0KWMoQnIpbltjSF1bY0hdNA==

> <s_epik_cmdline>
J2VwaWtfcHl0aG9uJywgJy1waHQnLCAnMC41JywgJy1waCcsICc3LjQnLCAnLXRuJywgJzgnLCAnLW1hJywgJzIwMCcsICctaW1hZScsICc8aW5maWxlLm1hZT4nLCAnLW9tYWUnLCAnPG91dGZpbGUubWFlPic=

> <r_lp_tautomer_probability>
1.0

> <r_epik_Ionization_Penalty>
0.0

> <r_epik_Ionization_Penalty_Charging>
0.0

> <r_epik_Ionization_Penalty_Neutral>
0.0

> <r_epik_State_Penalty>
0.0

> <r_epik_Charging_Adjusted_Penalty>
0.0

> <i_epik_Tot_Q>
0

> <i_epik_Tot_abs_Q>
0

> <s_lp_Force_Field>
OPLS3

> <r_lp_Energy>
29.9462

> <b_lp_Chiralities_Consistent>
1

> <s_lp_Variant>
ligprep_COVID_compounds-withfrags-smallmolecules-forvalidation.maegz:56-2

> <i_glide_original_lignum>
224

> <s_i_glide_gridfile>
glide-grid_5RGK_M-PRO_COVID

> <i_i_glide_lignum>
224

> <r_i_docking_score>
-3.74121267457509

> <r_i_glide_ligand_efficiency>
-0.155883861440629

> <r_i_glide_ligand_efficiency_sa>
-0.449646863884878

> <r_i_glide_ligand_efficiency_ln>
-0.895443866089088

> <r_glide_XP_GScore>
-3.74121267457509

> <r_i_glide_gscore>
-3.74121267457509

> <r_i_glide_evdw>
-35.4720916748047

> <r_i_glide_ecoul>
-5.12428855895996

> <r_i_glide_energy>
-40.5963802337646

> <r_i_glide_einternal>
5.64849424362183

> <r_i_glide_emodel>
-46.8280738864248

> <r_glide_XP_HBond>
-0.0878016756013378

> <i_i_glide_confnum>
1

> <i_i_glide_posenum>
15

> <r_i_glide_eff_state_penalty>
0.0

> <i_glide_XP_PoseRank>
1

> <MW>
405.98

> <cLogP>
3.88

> <TPSA>
79.9

> <Rotatable Bonds>
2

> <Fraction sp3>
0.19

> <HBA>
4

> <HBD>
2

> <s_epik_Chemistry_Notes>


> <Structure ID>


> <Submission Fragments>


$$$$
ligprep_COVID_compounds-withfrags-smallmolecules-forvalidation.maegz:98
                    3D
 Structure written by MMmdl.
 51 55  0  0  1  0            999 V2000
    9.4914   -1.6813   24.5708 O   0  0  0  0  0  0
    8.4244   -1.1129   24.3208 C   0  0  0  0  0  0
    8.0789    0.1970   25.0715 C   0  0  0  0  0  0
    8.8157    1.3783   24.6274 N   0  0  0  0  0  0
    8.2224    2.5891   24.6221 N   0  0  0  0  0  0
    9.1229    3.5157   24.1449 N   0  0  0  0  0  0
   10.2732    2.8487   23.8443 C   0  0  0  0  0  0
   11.4866    3.3182   23.3234 C   0  0  0  0  0  0
   12.5065    2.3903   23.1071 C   0  0  0  0  0  0
   12.3295    1.0365   23.3994 C   0  0  0  0  0  0
   11.1316    0.5416   23.9221 C   0  0  0  0  0  0
   10.1093    1.4729   24.1391 C   0  0  0  0  0  0
    7.5468   -1.5979   23.3964 N   0  0  0  0  0  0
    7.5971   -3.0083   22.9707 C   0  0  0  0  0  0
    7.8815   -3.9816   24.1055 C   0  0  0  0  0  0
    6.8439   -4.4919   24.8919 C   0  0  0  0  0  0
    7.1653   -5.3638   25.9343 C   0  0  0  0  0  0
    8.5024   -5.6920   26.1695 C   0  0  0  0  0  0
    9.4811   -5.1282   25.3487 C   0  0  0  0  0  0
    9.1895   -4.2782   24.3309 N   0  0  0  0  0  0
    6.4687   -0.8282   22.9304 C   0  0  0  0  0  0
    5.4912   -0.3501   23.8072 C   0  0  0  0  0  0
    4.4415    0.3980   23.3806 N   0  0  0  0  0  0
    4.3750    0.6781   22.0458 C   0  0  0  0  0  0
    3.2115    1.4987   21.5559 C   0  0  0  0  0  0
    3.1497    1.9527   20.2261 C   0  0  0  0  0  0
    2.0740    2.7100   19.7703 C   0  0  0  0  0  0
    1.0368    3.0277   20.6401 C   0  0  0  0  0  0
    1.0696    2.5932   21.9605 C   0  0  0  0  0  0
    2.1475    1.8364   22.4117 C   0  0  0  0  0  0
    5.2926    0.2595   21.1256 N   0  0  0  0  0  0
    6.3313   -0.4868   21.5802 C   0  0  0  0  0  0
    7.0103    0.3942   24.9643 H   0  0  0  0  0  0
    8.2767    0.0752   26.1369 H   0  0  0  0  0  0
   11.6308    4.3637   23.0928 H   0  0  0  0  0  0
   13.4511    2.7254   22.7044 H   0  0  0  0  0  0
   13.1436    0.3507   23.2154 H   0  0  0  0  0  0
   11.0081   -0.5086   24.1425 H   0  0  0  0  0  0
    6.6439   -3.2746   22.5113 H   0  0  0  0  0  0
    8.3514   -3.1620   22.1973 H   0  0  0  0  0  0
    5.8150   -4.2261   24.6960 H   0  0  0  0  0  0
    6.3857   -5.7795   26.5555 H   0  0  0  0  0  0
    8.7736   -6.3637   26.9706 H   0  0  0  0  0  0
   10.5264   -5.3539   25.5022 H   0  0  0  0  0  0
    5.5333   -0.5649   24.8654 H   0  0  0  0  0  0
    3.9386    1.7233   19.5249 H   0  0  0  0  0  0
    2.0455    3.0490   18.7454 H   0  0  0  0  0  0
    0.2014    3.6152   20.2884 H   0  0  0  0  0  0
    0.2623    2.8417   22.6333 H   0  0  0  0  0  0
    2.1415    1.5144   23.4427 H   0  0  0  0  0  0
    7.0552   -0.8079   20.8451 H   0  0  0  0  0  0
  1  2  2  0  0  0
  2  3  1  0  0  0
  2 13  1  0  0  0
  3  4  1  0  0  0
  3 33  1  0  0  0
  3 34  1  0  0  0
  4  5  1  0  0  0
  4 12  1  0  0  0
  5  6  2  0  0  0
  6  7  1  0  0  0
  7  8  2  0  0  0
  7 12  1  0  0  0
  8  9  1  0  0  0
  8 35  1  0  0  0
  9 10  2  0  0  0
  9 36  1  0  0  0
 10 11  1  0  0  0
 10 37  1  0  0  0
 11 12  2  0  0  0
 11 38  1  0  0  0
 13 14  1  0  0  0
 13 21  1  0  0  0
 14 15  1  0  0  0
 14 39  1  0  0  0
 14 40  1  0  0  0
 15 16  2  0  0  0
 15 20  1  0  0  0
 16 17  1  0  0  0
 16 41  1  0  0  0
 17 18  2  0  0  0
 17 42  1  0  0  0
 18 19  1  0  0  0
 18 43  1  0  0  0
 19 20  2  0  0  0
 19 44  1  0  0  0
 21 22  2  0  0  0
 21 32  1  0  0  0
 22 23  1  0  0  0
 22 45  1  0  0  0
 23 24  2  0  0  0
 24 25  1  0  0  0
 24 31  1  0  0  0
 25 26  2  0  0  0
 25 30  1  0  0  0
 26 27  1  0  0  0
 26 46  1  0  0  0
 27 28  2  0  0  0
 27 47  1  0  0  0
 28 29  1  0  0  0
 28 48  1  0  0  0
 29 30  2  0  0  0
 29 49  1  0  0  0
 30 50  1  0  0  0
 31 32  2  0  0  0
 32 51  1  0  0  0
M  END
> <s_m_entry_id>
2322

> <s_m_entry_name>
Compounds-withfrags-for-validation-docking.1819

> <s_m_Source_Path>
/home/rodolpho/data/melina/maestro/glide-dock_XP_5RGK_M-PRO_VALIDATION

> <s_m_Source_File>
glide-dock_XP_5RGK_M-PRO_VALIDATION_pv.maegz

> <i_m_Source_File_Index>
2322

> <CID>
ALP-POS-c0c213c9-15

> <Potency>
99.5

> <pIC50>
4.00218

> <Source>
Postera

> <smiles>
O=C(Cn1nnc2ccccc21)N(Cc1ccccn1)c1cnc(-c2ccccc2)nc1

> <Outcome>
Inactive

> <StandardizerResult>
Clear Stereo (ID: ClearStereo)
Wedge Clean (ID: WedgeClean)
Mesomerize (ID: Mesomerize)
Tautomerize (ID: Tautomerize)
Aromatize (ID: Aromatize)
Add Explicit Hydrogens (ID: AddExplicitH)
Neutralize (ID: Neutralize)
Clean 2D (ID: Clean2D)

> <chiral flag>
0

> <version>
0

> <i_lp_mmshare_version>
41011

> <i_f3d_flags>
0

> <s_epik_input>
W2NIXTFbY0hdW2NIXVtjSF1jKGMxMiluKG5uMilbQ0gyXUMoPU8pTihbQ0gyXWMzW2NIXVtjSF1bY0hdW2NIXW4zKWM0W2NIXW5jKG5bY0hdNCktYzVbY0hdW2NIXVtjSF1bY0hdW2NIXTU=

> <s_epik_cmdline>
J2VwaWtfcHl0aG9uJywgJy1waHQnLCAnMC41JywgJy1waCcsICc3LjQnLCAnLXRuJywgJzgnLCAnLW1hJywgJzIwMCcsICctaW1hZScsICc8aW5maWxlLm1hZT4nLCAnLW9tYWUnLCAnPG91dGZpbGUubWFlPic=

> <r_lp_tautomer_probability>
1.0

> <r_epik_Ionization_Penalty>
0.0013

> <r_epik_Ionization_Penalty_Charging>
0.0

> <r_epik_Ionization_Penalty_Neutral>
0.0013

> <r_epik_State_Penalty>
0.0

> <r_epik_Charging_Adjusted_Penalty>
0.0

> <i_epik_Tot_Q>
0

> <i_epik_Tot_abs_Q>
0

> <s_lp_Force_Field>
OPLS3

> <r_lp_Energy>
59.9504

> <b_lp_Chiralities_Consistent>
1

> <s_lp_Variant>
ligprep_COVID_compounds-withfrags-smallmolecules-forvalidation.maegz:98-1

> <i_glide_original_lignum>
287

> <s_i_glide_gridfile>
glide-grid_5RGK_M-PRO_COVID

> <i_i_glide_lignum>
287

> <r_i_docking_score>
-3.73834400796262

> <r_i_glide_ligand_efficiency>
-0.116823250248832

> <r_i_glide_ligand_efficiency_sa>
-0.370890700250211

> <r_i_glide_ligand_efficiency_ln>
-0.837117126791785

> <r_glide_XP_GScore>
-3.73834400796262

> <r_i_glide_gscore>
-3.73834400796262

> <r_i_glide_evdw>
-37.361946105957

> <r_i_glide_ecoul>
-8.24895000457764

> <r_i_glide_energy>
-45.6108961105347

> <r_i_glide_einternal>
3.22044897079468

> <r_i_glide_emodel>
-62.3241397541738

> <r_glide_XP_HBond>
0.0

> <i_i_glide_confnum>
8

> <i_i_glide_posenum>
1

> <r_i_glide_eff_state_penalty>
0.0

> <i_glide_XP_PoseRank>
1

> <MW>
421.17

> <cLogP>
3.52

> <TPSA>
89.69

> <Rotatable Bonds>
6

> <Fraction sp3>
0.08

> <HBA>
7

> <HBD>
0

> <Submission Fragments>
x0072

> <s_epik_Chemistry_Notes>


> <Structure ID>


$$$$
ligprep_COVID_compounds-withfrags-smallmolecules-forvalidation.maegz:6
                    3D
 Structure written by MMmdl.
 57 60  0  0  1  0            999 V2000
    1.9784    3.4681   19.8091 C   0  0  0  0  0  0
    2.3806    2.3361   20.7971 C   0  0  1  0  0  0
    3.6755    1.5981   20.3467 C   0  0  0  0  0  0
    3.9804    1.4444   18.9815 C   0  0  0  0  0  0
    5.1334    0.8101   18.5455 C   0  0  0  0  0  0
    6.0219    0.2953   19.4713 C   0  0  0  0  0  0
    5.7528    0.3937   20.8324 C   0  0  0  0  0  0
    6.6936   -0.1680   21.6616 O   0  0  0  0  0  0
    4.5724    1.0293   21.3022 C   0  0  0  0  0  0
    4.2734    1.0747   22.7934 C   0  0  0  0  0  0
    5.0339    0.6147   23.6476 O   0  0  0  0  0  0
    2.9818    1.6943   23.1329 C   0  0  0  0  0  0
    2.6061    2.8925   22.2592 C   0  0  2  0  0  0
    1.5182    3.7557   22.9934 C   0  0  2  0  0  0
    0.3116    2.8939   23.5233 C   0  0  2  0  0  0
   -1.0424    3.5614   24.0219 C   0  0  2  0  0  0
   -1.3349    4.8897   23.2544 N   0  3  0  0  0  0
   -1.2750    4.8041   21.7109 C   0  0  0  0  0  0
   -0.5158    6.0911   23.7683 C   0  0  0  0  0  0
   -1.1584    3.6666   25.5649 C   0  0  0  0  0  0
   -2.3300    4.1103   25.8833 O   0  5  0  0  0  0
   -0.2204    3.2586   26.4747 C   0  0  0  0  0  0
   -0.4172    3.4405   27.9190 C   0  0  0  0  0  0
    0.0822    2.4879   28.7171 N   0  0  0  0  0  0
   -1.0171    4.4008   28.4006 O   0  0  0  0  0  0
    0.9964    2.5941   25.9459 C   0  0  0  0  0  0
    2.0679    2.6370   26.5587 O   0  0  0  0  0  0
    0.8448    1.8557   24.5781 C   0  0  2  0  0  0
    2.1932    1.2268   24.1367 C   0  0  0  0  0  0
    2.5015    0.1480   24.9210 O   0  0  0  0  0  0
   -0.1340    0.8295   24.7317 O   0  0  0  0  0  0
    1.2427    4.9306   22.2626 O   0  0  0  0  0  0
    1.2837    1.4396   20.7429 O   0  0  0  0  0  0
    2.7272    4.2606   19.7837 H   0  0  0  0  0  0
    1.0204    3.9184   20.0637 H   0  0  0  0  0  0
    1.8308    3.1205   18.7884 H   0  0  0  0  0  0
    3.3202    1.8126   18.2142 H   0  0  0  0  0  0
    5.3362    0.7182   17.4885 H   0  0  0  0  0  0
    6.9204   -0.1944   19.1237 H   0  0  0  0  0  0
    7.4096   -0.5906   21.1826 H   0  0  0  0  0  0
    3.4789    3.5501   22.2047 H   0  0  0  0  0  0
    2.0019    4.1799   23.8750 H   0  0  0  0  0  0
   -0.0119    2.3310   22.6497 H   0  0  0  0  0  0
   -1.8367    2.8789   23.7078 H   0  0  0  0  0  0
   -0.2296    4.7899   21.4018 H   0  0  0  0  0  0
   -1.7833    5.6896   21.3280 H   0  0  0  0  0  0
   -1.7917    3.8937   21.4061 H   0  0  0  0  0  0
    0.5380    5.8910   23.5711 H   0  0  0  0  0  0
   -0.7169    6.1846   24.8360 H   0  0  0  0  0  0
   -0.8648    6.9741   23.2318 H   0  0  0  0  0  0
    0.5911    1.7100   28.3245 H   0  0  0  0  0  0
   -0.0294    2.5574   29.7178 H   0  0  0  0  0  0
    3.3138   -0.2554   24.6054 H   0  0  0  0  0  0
   -0.9966    1.1944   24.5206 H   0  0  0  0  0  0
    2.0319    5.1771   21.7751 H   0  0  0  0  0  0
    0.4839    1.9341   20.9366 H   0  0  0  0  0  0
   -2.2972    5.1050   23.4773 H   0  0  0  0  0  0
  1  2  1  0  0  0
  1 34  1  0  0  0
  1 35  1  0  0  0
  1 36  1  0  0  0
  2  3  1  0  0  0
  2 33  1  0  0  0
  2 13  1  0  0  0
  3  4  2  0  0  0
  3  9  1  0  0  0
  4  5  1  0  0  0
  4 37  1  0  0  0
  5  6  2  0  0  0
  5 38  1  0  0  0
  6  7  1  0  0  0
  6 39  1  0  0  0
  7  8  1  0  0  0
  7  9  2  0  0  0
  8 40  1  0  0  0
  9 10  1  0  0  0
 10 11  2  0  0  0
 10 12  1  0  0  0
 12 13  1  0  0  0
 12 29  2  0  0  0
 13 14  1  0  0  0
 13 41  1  0  0  0
 14 15  1  0  0  0
 14 32  1  0  0  0
 14 42  1  0  0  0
 15 16  1  0  0  0
 15 28  1  0  0  0
 15 43  1  0  0  0
 16 17  1  0  0  0
 16 20  1  0  0  0
 16 44  1  0  0  0
 17 18  1  0  0  0
 17 19  1  0  0  0
 17 57  1  0  0  0
 18 45  1  0  0  0
 18 46  1  0  0  0
 18 47  1  0  0  0
 19 48  1  0  0  0
 19 49  1  0  0  0
 19 50  1  0  0  0
 20 21  1  0  0  0
 20 22  2  0  0  0
 22 23  1  0  0  0
 22 26  1  0  0  0
 23 24  1  0  0  0
 23 25  2  0  0  0
 24 51  1  0  0  0
 24 52  1  0  0  0
 26 27  2  0  0  0
 26 28  1  0  0  0
 28 29  1  0  0  0
 28 31  1  0  0  0
 29 30  1  0  0  0
 30 53  1  0  0  0
 31 54  1  0  0  0
 32 55  1  0  0  0
 33 56  1  0  0  0
M  CHG  2  17   1  21  -1
M  END
> <s_m_entry_id>
2330

> <s_m_entry_name>
Compounds-withfrags-for-validation-docking.1911

> <s_m_Source_Path>
/home/rodolpho/data/melina/maestro/glide-dock_XP_5RGK_M-PRO_VALIDATION

> <s_m_Source_File>
glide-dock_XP_5RGK_M-PRO_VALIDATION_pv.maegz

> <i_m_Source_File_Index>
2330

> <CID>
Oxitetracyclin

> <Potency>
15.15

> <pIC50>
4.81959

> <Source>
https://doi.org/10.1101/2020.03.23.004580

> <smiles>
C(C1(C2=C(C(=C(C(O[H])=C2C(O[H])=C2C1(C(C1(C(N(C([H])([H])[H])C([H])([H])[H])([H])C(=O)C(=C(N([H])[H])O[H])C(=O)C1(C2=O)O[H])[H])(O[H])[H])[H])[H])[H])[H])O[H])([H])([H])[H]

> <Outcome>
Inactive

> <StandardizerResult>
Clear Stereo (ID: ClearStereo)
Wedge Clean (ID: WedgeClean)
Mesomerize (ID: Mesomerize)
Tautomerize (ID: Tautomerize)
Aromatize (ID: Aromatize)
Add Explicit Hydrogens (ID: AddExplicitH)
Neutralize (ID: Neutralize)
Clean 2D (ID: Clean2D)

> <chiral flag>
0

> <version>
0

> <i_lp_mmshare_version>
41011

> <i_f3d_flags>
0

> <s_epik_input>
W09IXWMxW2NIXVtjSF1bY0hdYyhbQ0BAXTIoW0NIM10pW09IXSljMUMoPU8pQyg9QzNbT0hdKVtDQEBIXTJbQ0BASF0oW09IXSlbQ0BASF0oW0NAQF0zNFtPSF0pW0NASF0oTihbQ0gzXSlbQ0gzXSlDKD1PKVtDQEhdKEM0PU8pQyg9TylbTkgyXQ==

> <s_epik_cmdline>
J2VwaWtfcHl0aG9uJywgJy1waHQnLCAnMC41JywgJy1waCcsICc3LjQnLCAnLXRuJywgJzgnLCAnLW1hJywgJzIwMCcsICctaW1hZScsICc8aW5maWxlLm1hZT4nLCAnLW9tYWUnLCAnPG91dGZpbGUubWFlPic=

> <r_epik_Ionization_Penalty>
0.6144

> <r_epik_Ionization_Penalty_Charging>
0.5087

> <r_epik_Ionization_Penalty_Neutral>
0.1057

> <r_epik_State_Penalty>
0.5157

> <r_epik_Charging_Adjusted_Penalty>
1.02439

> <i_epik_Tot_Q>
0

> <i_epik_Tot_abs_Q>
2

> <s_lp_Force_Field>
OPLS3

> <r_lp_Energy>
65.6327

> <b_lp_Chiralities_Consistent>
1

> <s_lp_Variant>
ligprep_COVID_compounds-withfrags-smallmolecules-forvalidation.maegz:6-45

> <i_glide_original_lignum>
97

> <s_i_glide_gridfile>
glide-grid_5RGK_M-PRO_COVID

> <i_i_glide_lignum>
97

> <r_i_docking_score>
-3.73529830418667

> <r_i_glide_ligand_efficiency>
-0.113190857702626

> <r_i_glide_ligand_efficiency_sa>
-0.363063561499695

> <r_i_glide_ligand_efficiency_ln>
-0.830711002511568

> <r_glide_XP_GScore>
-4.25100530418667

> <r_i_glide_gscore>
-4.25100530418667

> <r_i_glide_evdw>
-16.7231941223145

> <r_i_glide_ecoul>
-8.48656558990479

> <r_i_glide_energy>
-25.2097597122192

> <r_i_glide_einternal>
9.12163257598877

> <r_i_glide_emodel>
-27.0116806306232

> <r_glide_XP_HBond>
-1.55678498018403

> <i_i_glide_confnum>
1

> <i_i_glide_posenum>
27

> <r_i_glide_eff_state_penalty>
0.515707

> <i_glide_XP_PoseRank>
1

> <r_lp_tautomer_probability>


> <s_epik_Chemistry_Notes>


> <MW>


> <cLogP>


> <TPSA>


> <Rotatable Bonds>


> <Fraction sp3>


> <HBA>


> <HBD>


> <Structure ID>


> <Submission Fragments>


$$$$
ligprep_COVID_compounds-withfrags-smallmolecules-forvalidation.maegz:32
                    3D
 Structure written by MMmdl.
 60 63  0  0  1  0            999 V2000
    8.8358   -5.6195   25.6404 C   0  0  0  0  0  0
    8.3355   -5.2656   24.2382 C   0  0  0  0  0  0
    8.3701   -6.1392   23.3707 O   0  0  0  0  0  0
    7.8542   -3.8678   23.9889 C   0  0  0  0  0  0
    7.4925   -3.4882   22.6886 C   0  0  0  0  0  0
    7.0408   -2.1981   22.4288 C   0  0  0  0  0  0
    6.9401   -1.2749   23.4725 C   0  0  0  0  0  0
    6.4918    0.0341   23.2036 N   0  0  0  0  0  0
    7.1420    1.1491   23.6933 C   0  0  0  0  0  0
    6.6359    2.2733   23.6653 O   0  0  0  0  0  0
    8.4781    1.0398   24.2544 C   0  0  0  0  0  0
    9.0830   -0.0269   24.9145 C   0  0  0  0  0  0
   10.4114    0.3291   25.1499 C   0  0  0  0  0  0
   10.5831    1.5759   24.5771 C   0  0  0  0  0  0
    9.4225    1.9906   24.0083 O   0  0  0  0  0  0
    5.2165    0.1354   22.4249 C   0  0  1  0  0  0
    4.3048    1.2571   22.9966 C   0  0  0  0  0  0
    3.9329    1.2213   24.1704 O   0  0  0  0  0  0
    3.9831    2.2403   22.1393 N   0  0  0  0  0  0
    3.1530    3.3930   22.4759 C   0  0  0  0  0  0
    1.9474    3.0338   23.3673 C   0  0  0  0  0  0
    0.7784    2.4769   22.5692 C   0  0  0  0  0  0
    0.3741    1.1487   22.7424 C   0  0  0  0  0  0
   -0.7024    0.6415   22.0133 C   0  0  0  0  0  0
   -1.3806    1.4595   21.1090 C   0  0  0  0  0  0
   -0.9820    2.7849   20.9330 C   0  0  0  0  0  0
   -1.6393    3.5783   20.0573 F   0  0  0  0  0  0
    0.0947    3.2925   21.6612 C   0  0  0  0  0  0
    5.4176    0.1298   20.9047 C   0  0  0  0  0  0
    4.8625    1.1044   20.0540 C   0  0  0  0  0  0
    5.0590    1.0345   18.6741 C   0  0  0  0  0  0
    5.8013   -0.0273   18.1616 C   0  0  0  0  0  0
    6.3334   -0.9968   18.9448 N   0  0  0  0  0  0
    6.1328   -0.9081   20.2839 C   0  0  0  0  0  0
    7.2992   -1.6390   24.7721 C   0  0  0  0  0  0
    7.7510   -2.9305   25.0281 C   0  0  0  0  0  0
    9.6464   -4.9521   25.9334 H   0  0  0  0  0  0
    9.2086   -6.6438   25.6746 H   0  0  0  0  0  0
    8.0300   -5.5226   26.3680 H   0  0  0  0  0  0
    7.5583   -4.1859   21.8652 H   0  0  0  0  0  0
    6.7650   -1.9213   21.4213 H   0  0  0  0  0  0
    8.6103   -0.9556   25.1998 H   0  0  0  0  0  0
   11.1604   -0.2602   25.6578 H   0  0  0  0  0  0
   11.4267    2.2441   24.4860 H   0  0  0  0  0  0
    4.6667   -0.7862   22.6285 H   0  0  0  0  0  0
    4.3026    2.1779   21.1832 H   0  0  0  0  0  0
    3.7575    4.1718   22.9466 H   0  0  0  0  0  0
    2.7947    3.8192   21.5379 H   0  0  0  0  0  0
    2.2417    2.3016   24.1216 H   0  0  0  0  0  0
    1.6135    3.9102   23.9260 H   0  0  0  0  0  0
    0.8918    0.5085   23.4423 H   0  0  0  0  0  0
   -1.0117   -0.3844   22.1497 H   0  0  0  0  0  0
   -2.2142    1.0663   20.5457 H   0  0  0  0  0  0
    0.3956    4.3206   21.5199 H   0  0  0  0  0  0
    4.2769    1.9231   20.4443 H   0  0  0  0  0  0
    4.6433    1.7851   18.0184 H   0  0  0  0  0  0
    5.9746   -0.1165   17.0992 H   0  0  0  0  0  0
    6.5682   -1.7077   20.8623 H   0  0  0  0  0  0
    7.2226   -0.9322   25.5848 H   0  0  0  0  0  0
    8.0150   -3.1822   26.0448 H   0  0  0  0  0  0
  1  2  1  0  0  0
  1 37  1  0  0  0
  1 38  1  0  0  0
  1 39  1  0  0  0
  2  3  2  0  0  0
  2  4  1  0  0  0
  4  5  2  0  0  0
  4 36  1  0  0  0
  5  6  1  0  0  0
  5 40  1  0  0  0
  6  7  2  0  0  0
  6 41  1  0  0  0
  7  8  1  0  0  0
  7 35  1  0  0  0
  8  9  1  0  0  0
  8 16  1  0  0  0
  9 10  2  0  0  0
  9 11  1  0  0  0
 11 12  2  0  0  0
 11 15  1  0  0  0
 12 13  1  0  0  0
 12 42  1  0  0  0
 13 14  2  0  0  0
 13 43  1  0  0  0
 14 15  1  0  0  0
 14 44  1  0  0  0
 16 17  1  0  0  0
 16 29  1  0  0  0
 16 45  1  0  0  0
 17 18  2  0  0  0
 17 19  1  0  0  0
 19 20  1  0  0  0
 19 46  1  0  0  0
 20 21  1  0  0  0
 20 47  1  0  0  0
 20 48  1  0  0  0
 21 22  1  0  0  0
 21 49  1  0  0  0
 21 50  1  0  0  0
 22 23  2  0  0  0
 22 28  1  0  0  0
 23 24  1  0  0  0
 23 51  1  0  0  0
 24 25  2  0  0  0
 24 52  1  0  0  0
 25 26  1  0  0  0
 25 53  1  0  0  0
 26 27  1  0  0  0
 26 28  2  0  0  0
 28 54  1  0  0  0
 29 30  2  0  0  0
 29 34  1  0  0  0
 30 31  1  0  0  0
 30 55  1  0  0  0
 31 32  2  0  0  0
 31 56  1  0  0  0
 32 33  1  0  0  0
 32 57  1  0  0  0
 33 34  2  0  0  0
 34 58  1  0  0  0
 35 36  2  0  0  0
 35 59  1  0  0  0
 36 60  1  0  0  0
M  END
> <s_m_entry_id>
2332

> <s_m_entry_name>
Compounds-withfrags-for-validation-docking.1885

> <s_m_Source_Path>
/home/rodolpho/data/melina/maestro/glide-dock_XP_5RGK_M-PRO_VALIDATION

> <s_m_Source_File>
glide-dock_XP_5RGK_M-PRO_VALIDATION_pv.maegz

> <i_m_Source_File_Index>
2332

> <CID>
ALP-POS-b0bc6a46-23

> <Potency>
56.282

> <pIC50>
4.24963

> <Source>
Postera

> <smiles>
CC(=O)c1ccc(N(C(=O)c2ccco2)C(C(=O)NCCc2cccc(F)c2)c2cccnc2)cc1

> <Outcome>
Inactive

> <StandardizerResult>
Clear Stereo (ID: ClearStereo)
Wedge Clean (ID: WedgeClean)
Mesomerize (ID: Mesomerize)
Tautomerize (ID: Tautomerize)
Aromatize (ID: Aromatize)
Add Explicit Hydrogens (ID: AddExplicitH)
Neutralize (ID: Neutralize)
Clean 2D (ID: Clean2D)

> <chiral flag>
0

> <version>
0

> <i_lp_mmshare_version>
41011

> <i_f3d_flags>
0

> <s_epik_input>
W0NIM11DKD1PKWMxW2NIXVtjSF1jKFtjSF1bY0hdMSlOKEMoPU8pYzJbY0hdW2NIXVtjSF1vMilbQ0BIXShjM1tjSF1bY0hdW2NIXW5bY0hdMylDKD1PKVtOSF1bQ0gyXVtDSDJdYzRbY0hdW2NIXVtjSF1jKEYpW2NIXTQ=

> <s_epik_cmdline>
J2VwaWtfcHl0aG9uJywgJy1waHQnLCAnMC41JywgJy1waCcsICc3LjQnLCAnLXRuJywgJzgnLCAnLW1hJywgJzIwMCcsICctaW1hZScsICc8aW5maWxlLm1hZT4nLCAnLW9tYWUnLCAnPG91dGZpbGUubWFlPic=

> <r_lp_tautomer_probability>
1.0

> <r_epik_Ionization_Penalty>
5.0E-4

> <r_epik_Ionization_Penalty_Charging>
0.0

> <r_epik_Ionization_Penalty_Neutral>
5.0E-4

> <r_epik_State_Penalty>
0.0

> <r_epik_Charging_Adjusted_Penalty>
0.0

> <i_epik_Tot_Q>
0

> <i_epik_Tot_abs_Q>
0

> <s_lp_Force_Field>
OPLS3

> <r_lp_Energy>
70.8103

> <b_lp_Chiralities_Consistent>
1

> <s_lp_Variant>
ligprep_COVID_compounds-withfrags-smallmolecules-forvalidation.maegz:32-1

> <i_glide_original_lignum>
165

> <s_i_glide_gridfile>
glide-grid_5RGK_M-PRO_COVID

> <i_i_glide_lignum>
165

> <r_i_docking_score>
-3.73460738321645

> <r_i_glide_ligand_efficiency>
-0.103739093978235

> <r_i_glide_ligand_efficiency_sa>
-0.342538940773209

> <r_i_glide_ligand_efficiency_ln>
-0.81479043358647

> <r_glide_XP_GScore>
-3.73460738321645

> <r_i_glide_gscore>
-3.73460738321645

> <r_i_glide_evdw>
-39.1486663818359

> <r_i_glide_ecoul>
-7.38734197616577

> <r_i_glide_energy>
-46.5360083580017

> <r_i_glide_einternal>
9.25247287750244

> <r_i_glide_emodel>
-61.2961674550673

> <r_glide_XP_HBond>
-0.9975

> <i_i_glide_confnum>
1

> <i_i_glide_posenum>
23

> <r_i_glide_eff_state_penalty>
0.0

> <i_glide_XP_PoseRank>
1

> <MW>
485.18

> <cLogP>
4.76

> <TPSA>
92.51

> <Rotatable Bonds>
9

> <Fraction sp3>
0.14

> <HBA>
5

> <HBD>
1

> <s_epik_Chemistry_Notes>


> <Structure ID>


> <Submission Fragments>


$$$$
ligprep_COVID_compounds-withfrags-smallmolecules-forvalidation.maegz:45
                    3D
 Structure written by MMmdl.
 66 70  0  0  1  0            999 V2000
    3.2330   -1.6472   26.3302 C   0  0  0  0  0  0
    2.1442   -0.6022   26.0714 C   0  0  0  0  0  0
    2.6104    0.3233   25.0972 O   0  0  0  0  0  0
    1.8195    1.5040   24.9806 C   0  0  1  0  0  0
    2.6953    2.7590   25.0897 C   0  0  0  0  0  0
    2.6659    2.8610   23.5616 C   0  0  1  0  0  0
    1.4974    1.8650   23.5219 C   0  0  0  0  0  0
    2.8618    4.1054   22.7222 C   0  0  0  0  0  0
    3.8763    2.9719   22.6538 C   0  0  2  0  0  0
    4.0769    2.0653   21.4807 N   0  0  0  0  0  0
    3.1648    1.9120   20.4651 C   0  0  0  0  0  0
    3.4267    1.4372   19.3609 O   0  0  0  0  0  0
    1.8206    2.3932   20.6737 C   0  0  0  0  0  0
    0.7220    1.7789   21.2654 C   0  0  0  0  0  0
   -0.3688    2.6299   21.0841 C   0  0  0  0  0  0
    0.0937    3.6985   20.3355 C   0  0  0  0  0  0
    1.4129    3.5378   20.0572 O   0  0  0  0  0  0
    5.4875    1.5692   21.3564 C   0  0  1  0  0  0
    5.9595    0.9954   22.7179 C   0  0  0  0  0  0
    5.6323    1.5483   23.7693 O   0  0  0  0  0  0
    6.7115   -0.1158   22.6542 N   0  0  0  0  0  0
    7.0004   -0.9914   23.7888 C   0  0  0  0  0  0
    7.2709   -2.4692   23.4238 C   0  0  0  0  0  0
    7.8067   -3.3120   24.5754 C   0  0  0  0  0  0
    9.1231   -3.7845   24.5465 C   0  0  0  0  0  0
    9.6154   -4.5577   25.5984 C   0  0  0  0  0  0
    8.7925   -4.8680   26.6812 C   0  0  0  0  0  0
    7.4782   -4.4020   26.7143 C   0  0  0  0  0  0
    6.6791   -4.7089   27.7607 F   0  0  0  0  0  0
    6.9879   -3.6208   25.6674 C   0  0  0  0  0  0
    5.6938    0.6739   20.1312 C   0  0  0  0  0  0
    5.6117   -0.7232   20.2574 C   0  0  0  0  0  0
    5.7864   -1.5477   19.1457 C   0  0  0  0  0  0
    6.0232   -0.9515   17.9091 C   0  0  0  0  0  0
    6.0829    0.3922   17.7408 N   0  0  0  0  0  0
    5.9143    1.1766   18.8359 C   0  0  0  0  0  0
    2.9160   -2.3594   27.0923 H   0  0  0  0  0  0
    4.1549   -1.1780   26.6752 H   0  0  0  0  0  0
    3.4604   -2.2100   25.4245 H   0  0  0  0  0  0
    1.2348   -1.0991   25.7301 H   0  0  0  0  0  0
    1.9054   -0.0802   26.9996 H   0  0  0  0  0  0
    0.9898    1.4261   25.6863 H   0  0  0  0  0  0
    2.2098    3.5958   25.5935 H   0  0  0  0  0  0
    3.6824    2.6029   25.5273 H   0  0  0  0  0  0
    1.5939    1.0440   22.8123 H   0  0  0  0  0  0
    0.5247    2.3389   23.3859 H   0  0  0  0  0  0
    2.1729    4.3120   21.9062 H   0  0  0  0  0  0
    3.1633    5.0239   23.2254 H   0  0  0  0  0  0
    4.8120    3.1979   23.1660 H   0  0  0  0  0  0
    0.7158    0.8273   21.7763 H   0  0  0  0  0  0
   -1.3779    2.4732   21.4356 H   0  0  0  0  0  0
   -0.3753    4.5851   19.9349 H   0  0  0  0  0  0
    6.1627    2.3997   21.1685 H   0  0  0  0  0  0
    7.1392   -0.3641   21.7737 H   0  0  0  0  0  0
    7.8345   -0.5878   24.3658 H   0  0  0  0  0  0
    6.1305   -0.9445   24.4447 H   0  0  0  0  0  0
    6.3577   -2.9243   23.0371 H   0  0  0  0  0  0
    7.9816   -2.5139   22.5973 H   0  0  0  0  0  0
    9.7665   -3.5519   23.7104 H   0  0  0  0  0  0
   10.6329   -4.9189   25.5727 H   0  0  0  0  0  0
    9.1728   -5.4693   27.4936 H   0  0  0  0  0  0
    5.9709   -3.2574   25.7075 H   0  0  0  0  0  0
    5.4177   -1.1749   21.2193 H   0  0  0  0  0  0
    5.7378   -2.6220   19.2409 H   0  0  0  0  0  0
    6.1639   -1.5556   17.0249 H   0  0  0  0  0  0
    5.9620    2.2373   18.6403 H   0  0  0  0  0  0
  1  2  1  0  0  0
  1 37  1  0  0  0
  1 38  1  0  0  0
  1 39  1  0  0  0
  2  3  1  0  0  0
  2 40  1  0  0  0
  2 41  1  0  0  0
  3  4  1  0  0  0
  4  5  1  0  0  0
  4  7  1  0  0  0
  4 42  1  0  0  0
  5  6  1  0  0  0
  5 43  1  0  0  0
  5 44  1  0  0  0
  6  7  1  0  0  0
  6  8  1  0  0  0
  6  9  1  0  0  0
  7 45  1  0  0  0
  7 46  1  0  0  0
  8  9  1  0  0  0
  8 47  1  0  0  0
  8 48  1  0  0  0
  9 10  1  0  0  0
  9 49  1  0  0  0
 10 11  1  0  0  0
 10 18  1  0  0  0
 11 12  2  0  0  0
 11 13  1  0  0  0
 13 14  2  0  0  0
 13 17  1  0  0  0
 14 15  1  0  0  0
 14 50  1  0  0  0
 15 16  2  0  0  0
 15 51  1  0  0  0
 16 17  1  0  0  0
 16 52  1  0  0  0
 18 19  1  0  0  0
 18 31  1  0  0  0
 18 53  1  0  0  0
 19 20  2  0  0  0
 19 21  1  0  0  0
 21 22  1  0  0  0
 21 54  1  0  0  0
 22 23  1  0  0  0
 22 55  1  0  0  0
 22 56  1  0  0  0
 23 24  1  0  0  0
 23 57  1  0  0  0
 23 58  1  0  0  0
 24 25  2  0  0  0
 24 30  1  0  0  0
 25 26  1  0  0  0
 25 59  1  0  0  0
 26 27  2  0  0  0
 26 60  1  0  0  0
 27 28  1  0  0  0
 27 61  1  0  0  0
 28 29  1  0  0  0
 28 30  2  0  0  0
 30 62  1  0  0  0
 31 32  2  0  0  0
 31 36  1  0  0  0
 32 33  1  0  0  0
 32 63  1  0  0  0
 33 34  2  0  0  0
 33 64  1  0  0  0
 34 35  1  0  0  0
 34 65  1  0  0  0
 35 36  2  0  0  0
 36 66  1  0  0  0
M  END
> <s_m_entry_id>
2362

> <s_m_entry_name>
Compounds-withfrags-for-validation-docking.1872

> <s_m_Source_Path>
/home/rodolpho/data/melina/maestro/glide-dock_XP_5RGK_M-PRO_VALIDATION

> <s_m_Source_File>
glide-dock_XP_5RGK_M-PRO_VALIDATION_pv.maegz

> <i_m_Source_File_Index>
2362

> <CID>
ALP-POS-b0bc6a46-4

> <Potency>
99.5

> <pIC50>
4.00218

> <Source>
Postera

> <smiles>
CCOC1CC2(C1)CC2N(C(=O)c1ccco1)C(C(=O)NCCc1cccc(F)c1)c1cccnc1

> <Outcome>
Inactive

> <StandardizerResult>
Clear Stereo (ID: ClearStereo)
Wedge Clean (ID: WedgeClean)
Mesomerize (ID: Mesomerize)
Tautomerize (ID: Tautomerize)
Aromatize (ID: Aromatize)
Add Explicit Hydrogens (ID: AddExplicitH)
Neutralize (ID: Neutralize)
Clean 2D (ID: Clean2D)

> <chiral flag>
0

> <version>
0

> <i_lp_mmshare_version>
41011

> <i_f3d_flags>
0

> <s_epik_input>
W0NIM11bQ0gyXU9bQ0BIXShbQ0gyXTEpW0NIMl1bQ0BdMTJbQ0gyXVtDQEBIXTJOKEMoPU8pYzNbY0hdW2NIXVtjSF1vMylbQ0BIXShjNFtjSF1bY0hdW2NIXW5bY0hdNClDKD1PKVtOSF1bQ0gyXVtDSDJdYzVbY0hdW2NIXVtjSF1jKEYpW2NIXTU=

> <s_epik_cmdline>
J2VwaWtfcHl0aG9uJywgJy1waHQnLCAnMC41JywgJy1waCcsICc3LjQnLCAnLXRuJywgJzgnLCAnLW1hJywgJzIwMCcsICctaW1hZScsICc8aW5maWxlLm1hZT4nLCAnLW9tYWUnLCAnPG91dGZpbGUubWFlPic=

> <r_lp_tautomer_probability>
1.0

> <r_epik_Ionization_Penalty>
8.0E-4

> <r_epik_Ionization_Penalty_Charging>
0.0

> <r_epik_Ionization_Penalty_Neutral>
8.0E-4

> <r_epik_State_Penalty>
0.0

> <r_epik_Charging_Adjusted_Penalty>
0.0

> <i_epik_Tot_Q>
0

> <i_epik_Tot_abs_Q>
0

> <s_lp_Force_Field>
OPLS3

> <r_lp_Energy>
66.1521

> <b_lp_Chiralities_Consistent>
1

> <s_lp_Variant>
ligprep_COVID_compounds-withfrags-smallmolecules-forvalidation.maegz:45-2

> <i_glide_original_lignum>
196

> <s_i_glide_gridfile>
glide-grid_5RGK_M-PRO_COVID

> <i_i_glide_lignum>
196

> <r_i_docking_score>
-3.71577509384615

> <r_i_glide_ligand_efficiency>
-0.10321597482906

> <r_i_glide_ligand_efficiency_sa>
-0.340811639402193

> <r_i_glide_ligand_efficiency_ln>
-0.810681736835532

> <r_glide_XP_GScore>
-3.71577509384615

> <r_i_glide_gscore>
-3.71577509384615

> <r_i_glide_evdw>
-28.9047946929932

> <r_i_glide_ecoul>
-8.67318439483643

> <r_i_glide_energy>
-37.5779790878296

> <r_i_glide_einternal>
8.89293575286865

> <r_i_glide_emodel>
-46.1823653987954

> <r_glide_XP_HBond>
-1.14913804588597

> <i_i_glide_confnum>
3

> <i_i_glide_posenum>
9

> <r_i_glide_eff_state_penalty>
0.0

> <i_glide_XP_PoseRank>
1

> <MW>
491.22

> <cLogP>
4.31

> <TPSA>
84.67

> <Rotatable Bonds>
10

> <Fraction sp3>
0.39

> <HBA>
5

> <HBD>
1

> <s_epik_Chemistry_Notes>


> <Structure ID>


> <Submission Fragments>


$$$$
ligprep_COVID_compounds-withfrags-smallmolecules-forvalidation.maegz:97
                    3D
 Structure written by MMmdl.
 50 53  0  0  1  0            999 V2000
    1.7076    2.8933   22.0600 C   0  0  0  0  0  0
    3.1417    2.4234   22.2226 C   0  0  0  0  0  0
    3.7936    2.6219   23.4569 C   0  0  0  0  0  0
    5.1361    2.2357   23.6198 C   0  0  0  0  0  0
    5.8343    1.6166   22.5649 C   0  0  0  0  0  0
    7.1748    1.2444   22.7206 N   0  0  0  0  0  0
    7.7378    0.6114   23.8244 C   0  0  0  0  0  0
    8.9033    0.8639   24.4366 C   0  0  0  0  0  0
    9.8102    1.9873   24.1601 C   0  0  0  0  0  0
    9.3119    3.3076   24.1475 C   0  0  0  0  0  0
   10.1509    4.3725   23.7663 C   0  0  0  0  0  0
   11.4777    4.1157   23.3685 C   0  0  0  0  0  0
   11.9739    2.7972   23.3719 C   0  0  0  0  0  0
   11.1513    1.7343   23.7919 C   0  0  0  0  0  0
    9.0517   -0.1061   25.4972 C   0  0  0  0  0  0
    9.9611   -0.1637   26.3265 O   0  0  0  0  0  0
    7.9918   -0.9324   25.4036 N   0  0  0  0  0  0
    7.7459   -2.0875   26.2728 C   0  0  0  0  0  0
    8.2529   -3.4007   25.6930 C   0  0  0  0  0  0
    9.1828   -4.1769   26.4084 C   0  0  0  0  0  0
    9.6577   -5.3645   25.8315 C   0  0  0  0  0  0
    9.1749   -5.7422   24.5691 C   0  0  0  0  0  0
    8.2628   -5.0276   23.8810 N   0  0  0  0  0  0
    7.8095   -3.8889   24.4415 C   0  0  0  0  0  0
    7.1480   -0.5598   24.4284 C   0  0  0  0  0  0
    6.0812   -1.1009   24.1424 O   0  0  0  0  0  0
    5.1903    1.4326   21.3242 C   0  0  0  0  0  0
    3.8485    1.8365   21.1442 C   0  0  0  0  0  0
    3.2088    1.7098   19.7733 C   0  0  0  0  0  0
    1.0457    2.0461   21.8828 H   0  0  0  0  0  0
    1.6283    3.5822   21.2182 H   0  0  0  0  0  0
    1.3556    3.4144   22.9507 H   0  0  0  0  0  0
    3.2773    3.1064   24.2720 H   0  0  0  0  0  0
    5.6539    2.4666   24.5390 H   0  0  0  0  0  0
    7.8052    1.5003   21.9658 H   0  0  0  0  0  0
    8.2810    3.5051   24.4056 H   0  0  0  0  0  0
    9.7663    5.3818   23.7459 H   0  0  0  0  0  0
   12.1112    4.9312   23.0510 H   0  0  0  0  0  0
   12.9919    2.6041   23.0640 H   0  0  0  0  0  0
   11.5357    0.7240   23.7848 H   0  0  0  0  0  0
    8.1970   -1.9151   27.2511 H   0  0  0  0  0  0
    6.6764   -2.1893   26.4665 H   0  0  0  0  0  0
    9.5520   -3.8607   27.3706 H   0  0  0  0  0  0
   10.3761   -5.9842   26.3425 H   0  0  0  0  0  0
    9.5615   -6.6235   24.0824 H   0  0  0  0  0  0
    7.0794   -3.3565   23.8545 H   0  0  0  0  0  0
    5.7353    0.9972   20.4999 H   0  0  0  0  0  0
    3.7600    1.0169   19.1372 H   0  0  0  0  0  0
    3.1820    2.6778   19.2731 H   0  0  0  0  0  0
    2.1813    1.3652   19.8573 H   0  0  0  0  0  0
  1  2  1  0  0  0
  1 30  1  0  0  0
  1 31  1  0  0  0
  1 32  1  0  0  0
  2  3  2  0  0  0
  2 28  1  0  0  0
  3  4  1  0  0  0
  3 33  1  0  0  0
  4  5  2  0  0  0
  4 34  1  0  0  0
  5  6  1  0  0  0
  5 27  1  0  0  0
  6  7  1  0  0  0
  6 35  1  0  0  0
  7  8  2  0  0  0
  7 25  1  0  0  0
  8  9  1  0  0  0
  8 15  1  0  0  0
  9 10  2  0  0  0
  9 14  1  0  0  0
 10 11  1  0  0  0
 10 36  1  0  0  0
 11 12  2  0  0  0
 11 37  1  0  0  0
 12 13  1  0  0  0
 12 38  1  0  0  0
 13 14  2  0  0  0
 13 39  1  0  0  0
 14 40  1  0  0  0
 15 16  2  0  0  0
 15 17  1  0  0  0
 17 18  1  0  0  0
 17 25  1  0  0  0
 18 19  1  0  0  0
 18 41  1  0  0  0
 18 42  1  0  0  0
 19 20  2  0  0  0
 19 24  1  0  0  0
 20 21  1  0  0  0
 20 43  1  0  0  0
 21 22  2  0  0  0
 21 44  1  0  0  0
 22 23  1  0  0  0
 22 45  1  0  0  0
 23 24  2  0  0  0
 24 46  1  0  0  0
 25 26  2  0  0  0
 27 28  2  0  0  0
 27 47  1  0  0  0
 28 29  1  0  0  0
 29 48  1  0  0  0
 29 49  1  0  0  0
 29 50  1  0  0  0
M  END
> <s_m_entry_id>
2383

> <s_m_entry_name>
Compounds-withfrags-for-validation-docking.1820

> <s_m_Source_Path>
/home/rodolpho/data/melina/maestro/glide-dock_XP_5RGK_M-PRO_VALIDATION

> <s_m_Source_File>
glide-dock_XP_5RGK_M-PRO_VALIDATION_pv.maegz

> <i_m_Source_File_Index>
2383

> <CID>
JAG-UCB-1d922829-1

> <Potency>
99.5

> <pIC50>
4.00218

> <Source>
Postera

> <smiles>
Cc1ccc(NC2=C(c3ccccc3)C(=O)N(Cc3cccnc3)C2=O)cc1C

> <Outcome>
Inactive

> <StandardizerResult>
Clear Stereo (ID: ClearStereo)
Wedge Clean (ID: WedgeClean)
Mesomerize (ID: Mesomerize)
Tautomerize (ID: Tautomerize)
Aromatize (ID: Aromatize)
Add Explicit Hydrogens (ID: AddExplicitH)
Neutralize (ID: Neutralize)
Clean 2D (ID: Clean2D)

> <chiral flag>
0

> <version>
0

> <i_lp_mmshare_version>
41011

> <i_f3d_flags>
0

> <s_epik_input>
W0NIM11jMVtjSF1bY0hdYyhbY0hdYzFbQ0gzXSlbTkhdQzI9QyhjM1tjSF1bY0hdW2NIXVtjSF1bY0hdMylDKD1PKU4oQzI9TylbQ0gyXWM0W2NIXVtjSF1bY0hdbltjSF00

> <s_epik_cmdline>
J2VwaWtfcHl0aG9uJywgJy1waHQnLCAnMC41JywgJy1waCcsICc3LjQnLCAnLXRuJywgJzgnLCAnLW1hJywgJzIwMCcsICctaW1hZScsICc8aW5maWxlLm1hZT4nLCAnLW9tYWUnLCAnPG91dGZpbGUubWFlPic=

> <r_lp_tautomer_probability>
1.0

> <r_epik_Ionization_Penalty>
0.0011

> <r_epik_Ionization_Penalty_Charging>
0.0

> <r_epik_Ionization_Penalty_Neutral>
0.0011

> <r_epik_State_Penalty>
0.0

> <r_epik_Charging_Adjusted_Penalty>
0.0

> <i_epik_Tot_Q>
0

> <i_epik_Tot_abs_Q>
0

> <s_lp_Force_Field>
OPLS3

> <r_lp_Energy>
43.9754

> <b_lp_Chiralities_Consistent>
1

> <s_lp_Variant>
ligprep_COVID_compounds-withfrags-smallmolecules-forvalidation.maegz:97-1

> <i_glide_original_lignum>
286

> <s_i_glide_gridfile>
glide-grid_5RGK_M-PRO_COVID

> <i_i_glide_lignum>
286

> <r_i_docking_score>
-3.69912152781714

> <r_i_glide_ligand_efficiency>
-0.127555914752315

> <r_i_glide_ligand_efficiency_sa>
-0.391892182669415

> <r_i_glide_ligand_efficiency_ln>
-0.847005028241606

> <r_glide_XP_GScore>
-3.69912152781714

> <r_i_glide_gscore>
-3.69912152781714

> <r_i_glide_evdw>
-34.0585746765137

> <r_i_glide_ecoul>
-5.58709526062012

> <r_i_glide_energy>
-39.6456699371338

> <r_i_glide_einternal>
8.32949447631836

> <r_i_glide_emodel>
-48.5645633518134

> <r_glide_XP_HBond>
-1.08138801491598

> <i_i_glide_confnum>
1

> <i_i_glide_posenum>
1

> <r_i_glide_eff_state_penalty>
0.0

> <i_glide_XP_PoseRank>
1

> <MW>
383.16

> <cLogP>
4.09

> <TPSA>
62.3

> <Rotatable Bonds>
5

> <Fraction sp3>
0.12

> <HBA>
4

> <HBD>
1

> <s_epik_Chemistry_Notes>


> <Structure ID>


> <Submission Fragments>


$$$$
ligprep_COVID_compounds-withfrags-smallmolecules-forvalidation.maegz:58
                    3D
 Structure written by MMmdl.
 39 42  0  0  1  0            999 V2000
    3.6296    1.4591   23.3298 C   0  0  0  0  0  0
    4.1079    1.1312   21.9258 C   0  0  0  0  0  0
    3.5511    1.8396   20.8318 C   0  0  0  0  0  0
    3.9750    1.5967   19.5480 C   0  0  0  0  0  0
    4.9365    0.6601   19.3411 N   0  0  0  0  0  0
    5.5108    0.2448   18.1869 C   0  0  0  0  0  0
    6.3785   -0.7321   18.4423 N   0  0  0  0  0  0
    6.3903   -0.9498   19.8160 N   0  0  0  0  0  0
    5.5288   -0.0907   20.3704 C   0  0  0  0  0  0
    5.0880    0.1786   21.7006 C   0  0  0  0  0  0
    5.6099   -0.5637   22.7894 N   0  0  0  0  0  0
    6.7710   -0.2882   23.4077 C   0  0  0  0  0  0
    7.5747    0.5337   22.9741 O   0  0  0  0  0  0
    7.0325   -0.9651   24.7671 C   0  0  2  0  0  0
    7.9752   -0.1090   25.6281 C   0  0  0  0  0  0
    8.1317   -0.7804   26.9872 C   0  0  0  0  0  0
    8.7751   -2.0356   26.8387 O   0  0  0  0  0  0
    8.3755   -2.8542   25.8049 C   0  0  0  0  0  0
    8.8557   -4.1776   25.8269 C   0  0  0  0  0  0
    8.4933   -5.0823   24.8160 C   0  0  0  0  0  0
    7.6448   -4.6632   23.7762 C   0  0  0  0  0  0
    7.1649   -5.7910   22.5703 Cl  0  0  0  0  0  0
    7.1756   -3.3345   23.7302 C   0  0  0  0  0  0
    7.5430   -2.4112   24.7383 C   0  0  0  0  0  0
    4.4093    2.0026   23.8622 H   0  0  0  0  0  0
    3.3897    0.5541   23.8853 H   0  0  0  0  0  0
    2.7358    2.0832   23.3091 H   0  0  0  0  0  0
    2.8116    2.6168   20.9974 H   0  0  0  0  0  0
    3.6116    2.1448   18.6829 H   0  0  0  0  0  0
    5.2712    0.6233   17.2055 H   0  0  0  0  0  0
    5.0100   -1.2728   23.1906 H   0  0  0  0  0  0
    6.0685   -1.0009   25.2751 H   0  0  0  0  0  0
    8.9558   -0.0202   25.1574 H   0  0  0  0  0  0
    7.5934    0.9036   25.7340 H   0  0  0  0  0  0
    8.7355   -0.1601   27.6500 H   0  0  0  0  0  0
    7.1649   -0.9166   27.4753 H   0  0  0  0  0  0
    9.4955   -4.5039   26.6341 H   0  0  0  0  0  0
    8.8532   -6.1007   24.8522 H   0  0  0  0  0  0
    6.5239   -3.0467   22.9187 H   0  0  0  0  0  0
  1  2  1  0  0  0
  1 25  1  0  0  0
  1 26  1  0  0  0
  1 27  1  0  0  0
  2  3  1  0  0  0
  2 10  2  0  0  0
  3  4  2  0  0  0
  3 28  1  0  0  0
  4  5  1  0  0  0
  4 29  1  0  0  0
  5  6  1  0  0  0
  5  9  1  0  0  0
  6  7  2  0  0  0
  6 30  1  0  0  0
  7  8  1  0  0  0
  8  9  2  0  0  0
  9 10  1  0  0  0
 10 11  1  0  0  0
 11 12  1  0  0  0
 11 31  1  0  0  0
 12 13  2  0  0  0
 12 14  1  0  0  0
 14 15  1  0  0  0
 14 24  1  0  0  0
 14 32  1  0  0  0
 15 16  1  0  0  0
 15 33  1  0  0  0
 15 34  1  0  0  0
 16 17  1  0  0  0
 16 35  1  0  0  0
 16 36  1  0  0  0
 17 18  1  0  0  0
 18 19  2  0  0  0
 18 24  1  0  0  0
 19 20  1  0  0  0
 19 37  1  0  0  0
 20 21  2  0  0  0
 20 38  1  0  0  0
 21 22  1  0  0  0
 21 23  1  0  0  0
 23 24  2  0  0  0
 23 39  1  0  0  0
M  END
> <s_m_entry_id>
2385

> <s_m_entry_name>
Compounds-withfrags-for-validation-docking.1859

> <s_m_Source_Path>
/home/rodolpho/data/melina/maestro/glide-dock_XP_5RGK_M-PRO_VALIDATION

> <s_m_Source_File>
glide-dock_XP_5RGK_M-PRO_VALIDATION_pv.maegz

> <i_m_Source_File_Index>
2385

> <CID>
JAG-UCB-52b62a6f-11

> <Potency>
99.5

> <pIC50>
4.00218

> <Source>
Postera

> <smiles>
Cc1ccn2cnnc2c1NC(=O)C1CCOc2ccc(Cl)cc21

> <Outcome>
Inactive

> <StandardizerResult>
Clear Stereo (ID: ClearStereo)
Wedge Clean (ID: WedgeClean)
Mesomerize (ID: Mesomerize)
Tautomerize (ID: Tautomerize)
Aromatize (ID: Aromatize)
Add Explicit Hydrogens (ID: AddExplicitH)
Neutralize (ID: Neutralize)
Clean 2D (ID: Clean2D)

> <chiral flag>
0

> <version>
0

> <i_lp_mmshare_version>
41011

> <i_f3d_flags>
0

> <s_epik_input>
W2NIXTFubmMobjEyKWMoYyhbQ0gzXSlbY0hdW2NIXTIpW05IXUMoPU8pW0NASF0oW0NIMl1bQ0gyXU8zKWMoYzM0KVtjSF1jKENsKVtjSF1bY0hdNA==

> <s_epik_cmdline>
J2VwaWtfcHl0aG9uJywgJy1waHQnLCAnMC41JywgJy1waCcsICc3LjQnLCAnLXRuJywgJzgnLCAnLW1hJywgJzIwMCcsICctaW1hZScsICc8aW5maWxlLm1hZT4nLCAnLW9tYWUnLCAnPG91dGZpbGUubWFlPic=

> <r_lp_tautomer_probability>
1.0

> <r_epik_Ionization_Penalty>
0.0

> <r_epik_Ionization_Penalty_Charging>
0.0

> <r_epik_Ionization_Penalty_Neutral>
0.0

> <r_epik_State_Penalty>
0.0

> <r_epik_Charging_Adjusted_Penalty>
0.0

> <i_epik_Tot_Q>
0

> <i_epik_Tot_abs_Q>
0

> <s_lp_Force_Field>
OPLS3

> <r_lp_Energy>
38.7047

> <b_lp_Chiralities_Consistent>
1

> <s_lp_Variant>
ligprep_COVID_compounds-withfrags-smallmolecules-forvalidation.maegz:58-1

> <i_glide_original_lignum>
227

> <s_i_glide_gridfile>
glide-grid_5RGK_M-PRO_COVID

> <i_i_glide_lignum>
227

> <r_i_docking_score>
-3.69860889791957

> <r_i_glide_ligand_efficiency>
-0.154108704079982

> <r_i_glide_ligand_efficiency_sa>
-0.444526424009062

> <r_i_glide_ligand_efficiency_ln>
-0.8852468273755

> <r_glide_XP_GScore>
-3.69860889791957

> <r_i_glide_gscore>
-3.69860889791957

> <r_i_glide_evdw>
-35.3478851318359

> <r_i_glide_ecoul>
-5.7056188583374

> <r_i_glide_energy>
-41.0535039901733

> <r_i_glide_einternal>
3.37242460250854

> <r_i_glide_emodel>
-47.9676920699556

> <r_glide_XP_HBond>
-0.966961367188545

> <i_i_glide_confnum>
1

> <i_i_glide_posenum>
1

> <r_i_glide_eff_state_penalty>
0.0

> <i_glide_XP_PoseRank>
1

> <MW>
342.09

> <cLogP>
3.2

> <TPSA>
68.52

> <Rotatable Bonds>
2

> <Fraction sp3>
0.24

> <HBA>
5

> <HBD>
1

> <s_epik_Chemistry_Notes>


> <Structure ID>


> <Submission Fragments>


$$$$
ligprep_COVID_compounds-withfrags-smallmolecules-forvalidation.maegz:12
                    3D
 Structure written by MMmdl.
 64 66  0  0  1  0            999 V2000
   10.3599   -5.2305   26.0652 C   0  0  0  0  0  0
    9.1134   -4.9034   25.3677 N   0  0  0  0  0  0
    7.9307   -5.5345   25.9584 C   0  0  0  0  0  0
    9.0688   -3.9923   24.3618 C   0  0  0  0  0  0
   10.0633   -3.3501   24.0122 O   0  0  0  0  0  0
    7.7300   -3.7707   23.6203 C   0  0  0  0  0  0
    7.4654   -2.3494   23.3945 N   0  0  0  0  0  0
    7.1610   -1.4696   24.3642 C   0  0  0  0  0  0
    7.0563   -1.7676   25.5551 O   0  0  0  0  0  0
    6.9806    0.0039   23.9040 C   0  0  2  0  0  0
    6.4025    0.1917   22.4953 C   0  0  0  0  0  0
    5.5981    1.2995   22.1738 C   0  0  0  0  0  0
    5.0532    1.4370   20.8967 C   0  0  0  0  0  0
    5.3125    0.4438   19.9551 C   0  0  0  0  0  0
    6.0630   -0.6505   20.2299 N   0  0  0  0  0  0
    6.5844   -0.7637   21.4780 C   0  0  0  0  0  0
    8.2113    0.8119   24.1787 N   0  0  0  0  0  0
    9.4746    0.2550   24.1754 C   0  0  0  0  0  0
    9.6803   -0.9178   24.4959 O   0  0  0  0  0  0
   10.6262    1.0430   23.7693 C   0  0  0  0  0  0
   11.8355    0.6352   23.2126 C   0  0  0  0  0  0
   12.6490    1.7648   23.1131 C   0  0  0  0  0  0
   11.9279    2.8086   23.6633 C   0  0  0  0  0  0
   10.7184    2.3644   24.0892 O   0  0  0  0  0  0
    7.9940    2.1693   24.4894 C   0  0  0  0  0  0
    8.1163    2.6172   25.8057 C   0  0  0  0  0  0
    7.8922    3.9584   26.1031 C   0  0  0  0  0  0
    7.5479    4.8719   25.0927 C   0  0  0  0  0  0
    7.2746    6.3689   25.3891 C   0  0  0  0  0  0
    8.2779    7.2520   24.6056 C   0  0  0  0  0  0
    7.4124    6.7338   26.8918 C   0  0  0  0  0  0
    5.8317    6.7279   24.9558 C   0  0  0  0  0  0
    7.4427    4.4036   23.7741 C   0  0  0  0  0  0
    7.6669    3.0650   23.4697 C   0  0  0  0  0  0
   11.2481   -4.8601   25.5514 H   0  0  0  0  0  0
   10.4685   -6.3114   26.1611 H   0  0  0  0  0  0
   10.3511   -4.8027   27.0683 H   0  0  0  0  0  0
    7.0783   -5.5665   25.2800 H   0  0  0  0  0  0
    7.6310   -5.0000   26.8604 H   0  0  0  0  0  0
    8.1488   -6.5663   26.2364 H   0  0  0  0  0  0
    7.7703   -4.2702   22.6521 H   0  0  0  0  0  0
    6.9052   -4.2125   24.1818 H   0  0  0  0  0  0
    7.5460   -2.0205   22.4435 H   0  0  0  0  0  0
    6.2098    0.4056   24.5652 H   0  0  0  0  0  0
    5.3893    2.0638   22.9055 H   0  0  0  0  0  0
    4.4423    2.2915   20.6453 H   0  0  0  0  0  0
    4.9092    0.5131   18.9556 H   0  0  0  0  0  0
    7.1583   -1.6633   21.6449 H   0  0  0  0  0  0
   12.0937   -0.3676   22.9048 H   0  0  0  0  0  0
   13.6491    1.8105   22.7083 H   0  0  0  0  0  0
   12.1381    3.8555   23.8262 H   0  0  0  0  0  0
    8.3704    1.9324   26.6009 H   0  0  0  0  0  0
    7.9884    4.2626   27.1335 H   0  0  0  0  0  0
    8.1256    8.3126   24.8116 H   0  0  0  0  0  0
    8.1845    7.1262   23.5264 H   0  0  0  0  0  0
    9.3093    7.0157   24.8720 H   0  0  0  0  0  0
    8.4168    6.5323   27.2671 H   0  0  0  0  0  0
    6.7063    6.1777   27.5105 H   0  0  0  0  0  0
    7.2172    7.7929   27.0672 H   0  0  0  0  0  0
    5.5963    7.7720   25.1678 H   0  0  0  0  0  0
    5.0950    6.1170   25.4801 H   0  0  0  0  0  0
    5.6731    6.5803   23.8870 H   0  0  0  0  0  0
    7.1796    5.0764   22.9715 H   0  0  0  0  0  0
    7.5739    2.7253   22.4482 H   0  0  0  0  0  0
  1  2  1  0  0  0
  1 35  1  0  0  0
  1 36  1  0  0  0
  1 37  1  0  0  0
  2  3  1  0  0  0
  2  4  1  0  0  0
  3 38  1  0  0  0
  3 39  1  0  0  0
  3 40  1  0  0  0
  4  5  2  0  0  0
  4  6  1  0  0  0
  6  7  1  0  0  0
  6 41  1  0  0  0
  6 42  1  0  0  0
  7  8  1  0  0  0
  7 43  1  0  0  0
  8  9  2  0  0  0
  8 10  1  0  0  0
 10 11  1  0  0  0
 10 17  1  0  0  0
 10 44  1  0  0  0
 11 12  2  0  0  0
 11 16  1  0  0  0
 12 13  1  0  0  0
 12 45  1  0  0  0
 13 14  2  0  0  0
 13 46  1  0  0  0
 14 15  1  0  0  0
 14 47  1  0  0  0
 15 16  2  0  0  0
 16 48  1  0  0  0
 17 18  1  0  0  0
 17 25  1  0  0  0
 18 19  2  0  0  0
 18 20  1  0  0  0
 20 21  2  0  0  0
 20 24  1  0  0  0
 21 22  1  0  0  0
 21 49  1  0  0  0
 22 23  2  0  0  0
 22 50  1  0  0  0
 23 24  1  0  0  0
 23 51  1  0  0  0
 25 26  2  0  0  0
 25 34  1  0  0  0
 26 27  1  0  0  0
 26 52  1  0  0  0
 27 28  2  0  0  0
 27 53  1  0  0  0
 28 29  1  0  0  0
 28 33  1  0  0  0
 29 30  1  0  0  0
 29 31  1  0  0  0
 29 32  1  0  0  0
 30 54  1  0  0  0
 30 55  1  0  0  0
 30 56  1  0  0  0
 31 57  1  0  0  0
 31 58  1  0  0  0
 31 59  1  0  0  0
 32 60  1  0  0  0
 32 61  1  0  0  0
 32 62  1  0  0  0
 33 34  2  0  0  0
 33 63  1  0  0  0
 34 64  1  0  0  0
M  END
> <s_m_entry_id>
2401

> <s_m_entry_name>
Compounds-withfrags-for-validation-docking.1905

> <s_m_Source_Path>
/home/rodolpho/data/melina/maestro/glide-dock_XP_5RGK_M-PRO_VALIDATION

> <s_m_Source_File>
glide-dock_XP_5RGK_M-PRO_VALIDATION_pv.maegz

> <i_m_Source_File_Index>
2401

> <CID>
ALP-POS-02c6a514-53

> <Potency>
10.9306

> <pIC50>
4.96135

> <Source>
Postera

> <smiles>
CN(C)C(=O)CNC(=O)C(c1cccnc1)N(C(=O)c1ccco1)c1ccc(C(C)(C)C)cc1

> <Outcome>
Inactive

> <StandardizerResult>
Clear Stereo (ID: ClearStereo)
Wedge Clean (ID: WedgeClean)
Mesomerize (ID: Mesomerize)
Tautomerize (ID: Tautomerize)
Aromatize (ID: Aromatize)
Add Explicit Hydrogens (ID: AddExplicitH)
Neutralize (ID: Neutralize)
Clean 2D (ID: Clean2D)

> <chiral flag>
0

> <version>
0

> <i_lp_mmshare_version>
41011

> <i_f3d_flags>
0

> <s_epik_input>
W0NIM11OKFtDSDNdKUMoPU8pW0NIMl1bTkhdQyg9TylbQ0BIXShjMVtjSF1bY0hdW2NIXW5bY0hdMSlOKEMoPU8pYzJbY0hdW2NIXVtjSF1vMiljM1tjSF1bY0hdYyhDKFtDSDNdKShbQ0gzXSlbQ0gzXSlbY0hdW2NIXTM=

> <s_epik_cmdline>
J2VwaWtfcHl0aG9uJywgJy1waHQnLCAnMC41JywgJy1waCcsICc3LjQnLCAnLXRuJywgJzgnLCAnLW1hJywgJzIwMCcsICctaW1hZScsICc8aW5maWxlLm1hZT4nLCAnLW9tYWUnLCAnPG91dGZpbGUubWFlPic=

> <r_lp_tautomer_probability>
1.0

> <r_epik_Ionization_Penalty>
5.0E-4

> <r_epik_Ionization_Penalty_Charging>
0.0

> <r_epik_Ionization_Penalty_Neutral>
5.0E-4

> <r_epik_State_Penalty>
0.0

> <r_epik_Charging_Adjusted_Penalty>
0.0

> <i_epik_Tot_Q>
0

> <i_epik_Tot_abs_Q>
0

> <s_lp_Force_Field>
OPLS3

> <r_lp_Energy>
71.5563

> <b_lp_Chiralities_Consistent>
1

> <s_lp_Variant>
ligprep_COVID_compounds-withfrags-smallmolecules-forvalidation.maegz:12-2

> <i_glide_original_lignum>
116

> <s_i_glide_gridfile>
glide-grid_5RGK_M-PRO_COVID

> <i_i_glide_lignum>
116

> <r_i_docking_score>
-3.69068698116293

> <r_i_glide_ligand_efficiency>
-0.108549617093027

> <r_i_glide_ligand_efficiency_sa>
-0.351658620145365

> <r_i_glide_ligand_efficiency_ln>
-0.815376274402247

> <r_glide_XP_GScore>
-3.69068698116293

> <r_i_glide_gscore>
-3.69068698116293

> <r_i_glide_evdw>
-37.8312568664551

> <r_i_glide_ecoul>
-8.80062961578369

> <r_i_glide_energy>
-46.6318864822388

> <r_i_glide_einternal>
10.2917222976685

> <r_i_glide_emodel>
-58.1696001861556

> <r_glide_XP_HBond>
-0.950971302792396

> <i_i_glide_confnum>
1

> <i_i_glide_posenum>
4

> <r_i_glide_eff_state_penalty>
0.0

> <i_glide_XP_PoseRank>
1

> <MW>
462.23

> <cLogP>
3.56

> <TPSA>
95.75

> <Rotatable Bonds>
7

> <Fraction sp3>
0.31

> <HBA>
5

> <HBD>
1

> <s_epik_Chemistry_Notes>


> <Structure ID>


> <Submission Fragments>


$$$$
ligprep_COVID_compounds-withfrags-smallmolecules-forvalidation.maegz:6
                    3D
 Structure written by MMmdl.
 57 60  0  0  1  0            999 V2000
    1.3036    1.6525   20.7235 C   0  0  0  0  0  0
    2.6089    2.4811   20.6473 C   0  0  2  0  0  0
    3.8002    1.5642   20.3386 C   0  0  0  0  0  0
    4.2813    1.4363   19.0146 C   0  0  0  0  0  0
    5.3859    0.6214   18.7243 C   0  0  0  0  0  0
    6.0435   -0.0550   19.7623 C   0  0  0  0  0  0
    5.6012    0.0782   21.0931 C   0  0  0  0  0  0
    6.3319   -0.5637   22.0542 O   0  0  0  0  0  0
    4.4602    0.8779   21.4001 C   0  0  0  0  0  0
    3.9749    1.0580   22.8178 C   0  0  0  0  0  0
    4.2230    0.2363   23.7012 O   0  0  0  0  0  0
    3.1689    2.2813   23.1253 C   0  0  0  0  0  0
    2.9646    3.2357   21.9590 C   0  0  2  0  0  0
    2.1603    4.5213   22.2985 C   0  0  2  0  0  0
    2.4044    5.0216   23.7473 C   0  0  2  0  0  0
    3.8189    5.7078   23.8868 C   0  0  1  0  0  0
    3.6471    7.2078   23.9250 N   0  3  0  0  0  0
    3.1340    7.7693   22.6486 C   0  0  0  0  0  0
    4.8105    8.0106   24.3865 C   0  0  0  0  0  0
    4.6807    5.1830   25.0792 C   0  0  0  0  0  0
    5.8913    5.3615   24.7960 O   0  5  0  0  0  0
    4.0611    4.6287   26.2064 C   0  0  0  0  0  0
    4.8069    4.2363   27.4182 C   0  0  0  0  0  0
    6.0886    4.5976   27.4311 N   0  0  0  0  0  0
    4.3483    3.6138   28.3739 O   0  0  0  0  0  0
    2.6107    4.3641   26.1572 C   0  0  0  0  0  0
    1.8586    4.4562   27.1305 O   0  0  0  0  0  0
    2.0761    3.9045   24.7813 C   0  0  2  0  0  0
    2.6861    2.5506   24.3633 C   0  0  0  0  0  0
    2.7720    1.6975   25.4017 O   0  0  0  0  0  0
    0.6660    3.7578   24.8386 O   0  0  0  0  0  0
    0.7672    4.3759   22.1025 O   0  0  0  0  0  0
    2.3750    3.4363   19.6263 O   0  0  0  0  0  0
    1.3528    0.8756   21.4835 H   0  0  0  0  0  0
    1.0901    1.1723   19.7724 H   0  0  0  0  0  0
    0.4245    2.2520   20.9433 H   0  0  0  0  0  0
    3.8063    1.9633   18.2010 H   0  0  0  0  0  0
    5.7287    0.5215   17.7056 H   0  0  0  0  0  0
    6.9025   -0.6694   19.5332 H   0  0  0  0  0  0
    7.1228   -0.9672   21.7263 H   0  0  0  0  0  0
    3.9749    3.5921   21.8138 H   0  0  0  0  0  0
    2.4646    5.2905   21.5891 H   0  0  0  0  0  0
    1.6655    5.8015   23.9429 H   0  0  0  0  0  0
    4.3749    5.5032   22.9707 H   0  0  0  0  0  0
    3.8116    7.5432   21.8236 H   0  0  0  0  0  0
    3.0320    8.8533   22.7085 H   0  0  0  0  0  0
    2.1460    7.3873   22.3966 H   0  0  0  0  0  0
    5.6816    7.8398   23.7521 H   0  0  0  0  0  0
    5.0749    7.7847   25.4198 H   0  0  0  0  0  0
    4.5854    9.0772   24.3607 H   0  0  0  0  0  0
    6.4421    5.0290   26.5787 H   0  0  0  0  0  0
    6.6903    4.3652   28.2056 H   0  0  0  0  0  0
    3.1707    0.8983   25.0783 H   0  0  0  0  0  0
    0.3559    3.7269   23.9413 H   0  0  0  0  0  0
    0.6293    4.2112   21.1782 H   0  0  0  0  0  0
    3.2354    3.8363   19.4270 H   0  0  0  0  0  0
    2.9367    7.3703   24.6239 H   0  0  0  0  0  0
  1  2  1  0  0  0
  1 34  1  0  0  0
  1 35  1  0  0  0
  1 36  1  0  0  0
  2  3  1  0  0  0
  2 33  1  0  0  0
  2 13  1  0  0  0
  3  4  2  0  0  0
  3  9  1  0  0  0
  4  5  1  0  0  0
  4 37  1  0  0  0
  5  6  2  0  0  0
  5 38  1  0  0  0
  6  7  1  0  0  0
  6 39  1  0  0  0
  7  8  1  0  0  0
  7  9  2  0  0  0
  8 40  1  0  0  0
  9 10  1  0  0  0
 10 11  2  0  0  0
 10 12  1  0  0  0
 12 13  1  0  0  0
 12 29  2  0  0  0
 13 14  1  0  0  0
 13 41  1  0  0  0
 14 15  1  0  0  0
 14 32  1  0  0  0
 14 42  1  0  0  0
 15 16  1  0  0  0
 15 28  1  0  0  0
 15 43  1  0  0  0
 16 17  1  0  0  0
 16 20  1  0  0  0
 16 44  1  0  0  0
 17 18  1  0  0  0
 17 19  1  0  0  0
 17 57  1  0  0  0
 18 45  1  0  0  0
 18 46  1  0  0  0
 18 47  1  0  0  0
 19 48  1  0  0  0
 19 49  1  0  0  0
 19 50  1  0  0  0
 20 21  1  0  0  0
 20 22  2  0  0  0
 22 23  1  0  0  0
 22 26  1  0  0  0
 23 24  1  0  0  0
 23 25  2  0  0  0
 24 51  1  0  0  0
 24 52  1  0  0  0
 26 27  2  0  0  0
 26 28  1  0  0  0
 28 29  1  0  0  0
 28 31  1  0  0  0
 29 30  1  0  0  0
 30 53  1  0  0  0
 31 54  1  0  0  0
 32 55  1  0  0  0
 33 56  1  0  0  0
M  CHG  2  17   1  21  -1
M  END
> <s_m_entry_id>
2404

> <s_m_entry_name>
Compounds-withfrags-for-validation-docking.1911

> <s_m_Source_Path>
/home/rodolpho/data/melina/maestro/glide-dock_XP_5RGK_M-PRO_VALIDATION

> <s_m_Source_File>
glide-dock_XP_5RGK_M-PRO_VALIDATION_pv.maegz

> <i_m_Source_File_Index>
2404

> <CID>
Oxitetracyclin

> <Potency>
15.15

> <pIC50>
4.81959

> <Source>
https://doi.org/10.1101/2020.03.23.004580

> <smiles>
C(C1(C2=C(C(=C(C(O[H])=C2C(O[H])=C2C1(C(C1(C(N(C([H])([H])[H])C([H])([H])[H])([H])C(=O)C(=C(N([H])[H])O[H])C(=O)C1(C2=O)O[H])[H])(O[H])[H])[H])[H])[H])[H])O[H])([H])([H])[H]

> <Outcome>
Inactive

> <StandardizerResult>
Clear Stereo (ID: ClearStereo)
Wedge Clean (ID: WedgeClean)
Mesomerize (ID: Mesomerize)
Tautomerize (ID: Tautomerize)
Aromatize (ID: Aromatize)
Add Explicit Hydrogens (ID: AddExplicitH)
Neutralize (ID: Neutralize)
Clean 2D (ID: Clean2D)

> <chiral flag>
0

> <version>
0

> <i_lp_mmshare_version>
41011

> <i_f3d_flags>
0

> <s_epik_input>
W09IXWMxW2NIXVtjSF1bY0hdYyhbQ0BdMihbQ0gzXSlbT0hdKWMxQyg9TylDKD1DM1tPSF0pW0NAQEhdMltDQEBIXShbT0hdKVtDQEBIXShbQ0BAXTM0W09IXSlbQ0BASF0oTihbQ0gzXSlbQ0gzXSlDKD1PKVtDQEhdKEM0PU8pQyg9TylbTkgyXQ==

> <s_epik_cmdline>
J2VwaWtfcHl0aG9uJywgJy1waHQnLCAnMC41JywgJy1waCcsICc3LjQnLCAnLXRuJywgJzgnLCAnLW1hJywgJzIwMCcsICctaW1hZScsICc8aW5maWxlLm1hZT4nLCAnLW9tYWUnLCAnPG91dGZpbGUubWFlPic=

> <r_epik_Ionization_Penalty>
0.6144

> <r_epik_Ionization_Penalty_Charging>
0.5087

> <r_epik_Ionization_Penalty_Neutral>
0.1057

> <r_epik_State_Penalty>
0.5157

> <r_epik_Charging_Adjusted_Penalty>
1.02439

> <i_epik_Tot_Q>
0

> <i_epik_Tot_abs_Q>
2

> <s_lp_Force_Field>
OPLS3

> <r_lp_Energy>
56.7887

> <b_lp_Chiralities_Consistent>
1

> <s_lp_Variant>
ligprep_COVID_compounds-withfrags-smallmolecules-forvalidation.maegz:6-32

> <i_glide_original_lignum>
84

> <s_i_glide_gridfile>
glide-grid_5RGK_M-PRO_COVID

> <i_i_glide_lignum>
84

> <r_i_docking_score>
-3.68640181769095

> <r_i_glide_ligand_efficiency>
-0.111709145990635

> <r_i_glide_ligand_efficiency_sa>
-0.358310920321865

> <r_i_glide_ligand_efficiency_ln>
-0.819836677087378

> <r_glide_XP_GScore>
-4.20210881769095

> <r_i_glide_gscore>
-4.20210881769095

> <r_i_glide_evdw>
-18.995153427124

> <r_i_glide_ecoul>
-11.5813426971436

> <r_i_glide_energy>
-30.5764961242676

> <r_i_glide_einternal>
3.15533661842346

> <r_i_glide_emodel>
-29.5056378074785

> <r_glide_XP_HBond>
-1.42651930273127

> <i_i_glide_confnum>
1

> <i_i_glide_posenum>
1

> <r_i_glide_eff_state_penalty>
0.515707

> <i_glide_XP_PoseRank>
1

> <r_lp_tautomer_probability>


> <s_epik_Chemistry_Notes>


> <MW>


> <cLogP>


> <TPSA>


> <Rotatable Bonds>


> <Fraction sp3>


> <HBA>


> <HBD>


> <Structure ID>


> <Submission Fragments>


$$$$
ligprep_COVID_compounds-withfrags-smallmolecules-forvalidation.maegz:60
                    3D
 Structure written by MMmdl.
 54 56  0  0  1  0            999 V2000
   -0.3964    4.0328   21.3871 C   0  0  0  0  0  0
    0.0429    4.3119   19.9602 C   0  0  0  0  0  0
   -0.8649    4.9420   19.0841 C   0  0  0  0  0  0
   -0.4375    5.2732   17.7846 C   0  0  0  0  0  0
    0.8044    5.0220   17.3252 N   0  0  0  0  0  0
    1.6711    4.4120   18.1609 C   0  0  0  0  0  0
    1.3438    4.0118   19.4745 C   0  0  0  0  0  0
    2.3747    3.4324   20.2597 N   0  0  0  0  0  0
    2.3253    2.2833   20.9575 C   0  0  0  0  0  0
    1.3592    1.5167   20.9708 O   0  0  0  0  0  0
    3.5803    1.9429   21.7627 C   0  0  0  0  0  0
    4.5535    1.0645   20.9886 C   0  0  0  0  0  0
    4.9184    1.3736   19.6636 C   0  0  0  0  0  0
    5.8369    0.5730   18.9742 C   0  0  0  0  0  0
    6.2882    1.0364   17.3784 Cl  0  0  0  0  0  0
    6.3882   -0.5634   19.5962 C   0  0  0  0  0  0
    6.0578   -0.8832   20.9326 C   0  0  0  0  0  0
    6.6329   -2.0100   21.4882 O   0  0  0  0  0  0
    6.8470   -2.0166   22.8989 C   0  0  0  0  0  0
    7.3040   -3.4095   23.3735 C   0  0  0  0  0  0
    7.6624   -3.5049   24.8019 N   0  0  0  0  0  0
    6.5285   -3.1461   25.6592 C   0  0  0  0  0  0
    6.8649   -3.2416   27.1506 C   0  0  0  0  0  0
    7.2851   -4.5626   27.4553 O   0  0  0  0  0  0
    8.4253   -4.9498   26.7002 C   0  0  0  0  0  0
    8.1369   -4.8497   25.1837 C   0  0  2  0  0  0
    9.3903   -5.3114   24.4217 C   0  0  0  0  0  0
    5.1403   -0.0499   21.6210 C   0  0  0  0  0  0
   -0.7424    3.0025   21.4815 H   0  0  0  0  0  0
   -1.2143    4.6928   21.6779 H   0  0  0  0  0  0
    0.4204    4.1965   22.0919 H   0  0  0  0  0  0
   -1.8647    5.1865   19.4031 H   0  0  0  0  0  0
   -1.1115    5.7603   17.0967 H   0  0  0  0  0  0
    2.6600    4.2327   17.7636 H   0  0  0  0  0  0
    3.3056    3.8374   20.1298 H   0  0  0  0  0  0
    4.0887    2.8608   22.0631 H   0  0  0  0  0  0
    3.2733    1.4446   22.6826 H   0  0  0  0  0  0
    4.5085    2.2362   19.1607 H   0  0  0  0  0  0
    7.0896   -1.1822   19.0591 H   0  0  0  0  0  0
    7.5894   -1.2622   23.1536 H   0  0  0  0  0  0
    5.9456   -1.7635   23.4365 H   0  0  0  0  0  0
    6.5233   -4.1361   23.1390 H   0  0  0  0  0  0
    8.1639   -3.6769   22.7599 H   0  0  0  0  0  0
    6.2137   -2.1215   25.4727 H   0  0  0  0  0  0
    5.6757   -3.7863   25.4363 H   0  0  0  0  0  0
    7.6434   -2.5252   27.4110 H   0  0  0  0  0  0
    5.9877   -2.9996   27.7519 H   0  0  0  0  0  0
    9.2770   -4.3267   26.9791 H   0  0  0  0  0  0
    8.6814   -5.9736   26.9700 H   0  0  0  0  0  0
    7.3443   -5.5694   24.9676 H   0  0  0  0  0  0
    9.7793   -6.2455   24.8282 H   0  0  0  0  0  0
   10.1890   -4.5726   24.4836 H   0  0  0  0  0  0
    9.1741   -5.4993   23.3714 H   0  0  0  0  0  0
    4.8367   -0.2614   22.6330 H   0  0  0  0  0  0
  1  2  1  0  0  0
  1 29  1  0  0  0
  1 30  1  0  0  0
  1 31  1  0  0  0
  2  3  2  0  0  0
  2  7  1  0  0  0
  3  4  1  0  0  0
  3 32  1  0  0  0
  4  5  2  0  0  0
  4 33  1  0  0  0
  5  6  1  0  0  0
  6  7  2  0  0  0
  6 34  1  0  0  0
  7  8  1  0  0  0
  8  9  1  0  0  0
  8 35  1  0  0  0
  9 10  2  0  0  0
  9 11  1  0  0  0
 11 12  1  0  0  0
 11 36  1  0  0  0
 11 37  1  0  0  0
 12 13  2  0  0  0
 12 28  1  0  0  0
 13 14  1  0  0  0
 13 38  1  0  0  0
 14 15  1  0  0  0
 14 16  2  0  0  0
 16 17  1  0  0  0
 16 39  1  0  0  0
 17 18  1  0  0  0
 17 28  2  0  0  0
 18 19  1  0  0  0
 19 20  1  0  0  0
 19 40  1  0  0  0
 19 41  1  0  0  0
 20 21  1  0  0  0
 20 42  1  0  0  0
 20 43  1  0  0  0
 21 22  1  0  0  0
 21 26  1  0  0  0
 22 23  1  0  0  0
 22 44  1  0  0  0
 22 45  1  0  0  0
 23 24  1  0  0  0
 23 46  1  0  0  0
 23 47  1  0  0  0
 24 25  1  0  0  0
 25 26  1  0  0  0
 25 48  1  0  0  0
 25 49  1  0  0  0
 26 27  1  0  0  0
 26 50  1  0  0  0
 27 51  1  0  0  0
 27 52  1  0  0  0
 27 53  1  0  0  0
 28 54  1  0  0  0
M  END
> <s_m_entry_id>
2442

> <s_m_entry_name>
Compounds-withfrags-for-validation-docking.1857

> <s_m_Source_Path>
/home/rodolpho/data/melina/maestro/glide-dock_XP_5RGK_M-PRO_VALIDATION

> <s_m_Source_File>
glide-dock_XP_5RGK_M-PRO_VALIDATION_pv.maegz

> <i_m_Source_File_Index>
2442

> <CID>
MAT-POS-500ca5bf-1

> <Potency>
99.5

> <pIC50>
4.00218

> <Source>
Postera

> <smiles>
Cc1ccncc1NC(=O)Cc1cc(Cl)cc(OCCN2CCOCC2C)c1

> <Outcome>
Inactive

> <StandardizerResult>
Clear Stereo (ID: ClearStereo)
Wedge Clean (ID: WedgeClean)
Mesomerize (ID: Mesomerize)
Tautomerize (ID: Tautomerize)
Aromatize (ID: Aromatize)
Add Explicit Hydrogens (ID: AddExplicitH)
Neutralize (ID: Neutralize)
Clean 2D (ID: Clean2D)

> <chiral flag>
0

> <version>
0

> <i_lp_mmshare_version>
41011

> <i_f3d_flags>
0

> <s_epik_input>
W0NIM11jMVtjSF1bY0hdbltjSF1jMVtOSF1DKD1PKVtDSDJdYzJbY0hdYyhDbClbY0hdYyhbY0hdMilPW0NIMl1bQ0gyXU4zW0NIMl1bQ0gyXU9bQ0gyXVtDQEBIXTNbQ0gzXQ==

> <s_epik_cmdline>
J2VwaWtfcHl0aG9uJywgJy1waHQnLCAnMC41JywgJy1waCcsICc3LjQnLCAnLXRuJywgJzgnLCAnLW1hJywgJzIwMCcsICctaW1hZScsICc8aW5maWxlLm1hZT4nLCAnLW9tYWUnLCAnPG91dGZpbGUubWFlPic=

> <r_lp_tautomer_probability>
1.0

> <r_epik_Ionization_Penalty>
0.0296

> <r_epik_Ionization_Penalty_Charging>
0.0

> <r_epik_Ionization_Penalty_Neutral>
0.0296

> <r_epik_State_Penalty>
0.0215

> <r_epik_Charging_Adjusted_Penalty>
0.0215153

> <i_epik_Tot_Q>
0

> <i_epik_Tot_abs_Q>
0

> <s_lp_Force_Field>
OPLS3

> <r_lp_Energy>
38.2353

> <b_lp_Chiralities_Consistent>
1

> <s_lp_Variant>
ligprep_COVID_compounds-withfrags-smallmolecules-forvalidation.maegz:60-2

> <i_glide_original_lignum>
232

> <s_i_glide_gridfile>
glide-grid_5RGK_M-PRO_COVID

> <i_i_glide_lignum>
232

> <r_i_docking_score>
-3.66374692795312

> <r_i_glide_ligand_efficiency>
-0.130848104569754

> <r_i_glide_ligand_efficiency_sa>
-0.397331910886019

> <r_i_glide_ligand_efficiency_ln>
-0.845700363255692

> <r_glide_XP_GScore>
-3.68526222795312

> <r_i_glide_gscore>
-3.68526222795312

> <r_i_glide_evdw>
-34.1583366394043

> <r_i_glide_ecoul>
-11.0358638763428

> <r_i_glide_energy>
-45.1942005157471

> <r_i_glide_einternal>
9.49638080596924

> <r_i_glide_emodel>
-56.7515413534422

> <r_glide_XP_HBond>
-0.907200746613915

> <i_i_glide_confnum>
1

> <i_i_glide_posenum>
4

> <r_i_glide_eff_state_penalty>
0.0215153

> <i_glide_XP_PoseRank>
1

> <MW>
403.17

> <cLogP>
3.32

> <TPSA>
63.69

> <Rotatable Bonds>
7

> <Fraction sp3>
0.43

> <HBA>
5

> <HBD>
1

> <s_epik_Chemistry_Notes>


> <Structure ID>


> <Submission Fragments>


$$$$
ligprep_COVID_compounds-withfrags-smallmolecules-forvalidation.maegz:4
                    3D
 Structure written by MMmdl.
 93 97  0  0  1  0            999 V2000
    1.0171    0.0415   25.0153 C   0  0  0  0  0  0
    0.3454    1.1436   24.1681 C   0  0  0  0  0  0
   -0.6773    0.4706   23.2194 C   0  0  0  0  0  0
   -0.3826    2.1196   25.1261 C   0  0  0  0  0  0
    1.4090    1.8319   23.4196 N   0  0  0  0  0  0
    2.6548    2.1275   23.8399 C   0  0  0  0  0  0
    3.1017    1.8233   24.9469 O   0  0  0  0  0  0
    3.5447    2.8652   22.8001 C   0  0  2  0  0  0
    4.5016    1.8039   22.2017 C   0  0  0  0  0  0
    5.5881    1.3550   23.0807 N   0  0  0  0  0  0
    6.3759    0.2754   22.4816 C   0  0  0  0  0  0
    6.0688    0.1103   20.9987 C   0  0  0  0  0  0
    5.6700    1.2042   20.2212 C   0  0  0  0  0  0
    5.4198    1.0278   18.8591 C   0  0  0  0  0  0
    5.5748   -0.2478   18.3136 C   0  0  0  0  0  0
    5.9567   -1.3235   19.0488 N   0  0  0  0  0  0
    6.1952   -1.1341   20.3721 C   0  0  0  0  0  0
    6.4319    2.4964   23.4400 C   0  0  0  0  0  0
    5.6453    3.6082   24.1748 C   0  0  0  0  0  0
    4.3676    4.0054   23.3876 N   0  3  2  0  0  0
    3.5022    5.0574   24.1410 C   0  0  0  0  0  0
    3.3909    6.3886   23.3633 C   0  0  2  0  0  0
    4.5480    7.3648   23.6983 C   0  0  0  0  0  0
    5.7325    7.3876   22.6849 C   0  0  1  0  0  0
    5.8712    8.7526   21.9566 C   0  0  0  0  0  0
    4.6935    9.0909   21.0500 C   0  0  0  0  0  0
    4.5707    8.4634   19.8071 C   0  0  0  0  0  0
    3.4941    8.7673   18.9780 C   0  0  0  0  0  0
    2.5446    9.6987   19.3934 C   0  0  0  0  0  0
    2.6617   10.3290   20.6306 C   0  0  0  0  0  0
    3.7381   10.0256   21.4601 C   0  0  0  0  0  0
    7.0555    6.9910   23.3746 C   0  0  0  0  0  0
    7.7492    7.8457   23.9284 O   0  0  0  0  0  0
    7.3586    5.6802   23.3722 N   0  0  0  0  0  0
    8.1283    4.9836   24.4072 C   0  0  1  0  0  0
    9.4859    5.6336   24.6384 C   0  0  0  0  0  0
   10.6597    5.5472   23.8849 C   0  0  0  0  0  0
   11.8092    6.2163   24.3079 C   0  0  0  0  0  0
   11.7913    6.9635   25.4869 C   0  0  0  0  0  0
   10.6228    7.0457   26.2459 C   0  0  0  0  0  0
    9.4735    6.3760   25.8226 C   0  0  0  0  0  0
    8.0999    6.3216   26.4529 C   0  0  0  0  0  0
    7.4453    5.1029   25.7865 C   0  0  2  0  0  0
    7.6199    3.9311   26.5649 O   0  0  0  0  0  0
    2.1517    7.0132   23.6474 O   0  0  0  0  0  0
    0.2861   -0.5121   25.6066 H   0  0  0  0  0  0
    1.7461    0.4580   25.7124 H   0  0  0  0  0  0
    1.5423   -0.6831   24.3908 H   0  0  0  0  0  0
   -0.1876   -0.2073   22.5190 H   0  0  0  0  0  0
   -1.2353    1.1991   22.6309 H   0  0  0  0  0  0
   -1.4120   -0.1131   23.7758 H   0  0  0  0  0  0
   -1.1193    1.6009   25.7408 H   0  0  0  0  0  0
   -0.9157    2.9029   24.5862 H   0  0  0  0  0  0
    0.3165    2.6128   25.8034 H   0  0  0  0  0  0
    1.1768    2.0543   22.4625 H   0  0  0  0  0  0
    2.9202    3.3087   22.0223 H   0  0  0  0  0  0
    3.9002    0.9569   21.8656 H   0  0  0  0  0  0
    4.9315    2.2388   21.2971 H   0  0  0  0  0  0
    7.4435    0.4401   22.6405 H   0  0  0  0  0  0
    6.1335   -0.6689   22.9722 H   0  0  0  0  0  0
    5.5649    2.1833   20.6658 H   0  0  0  0  0  0
    5.1155    1.8600   18.2417 H   0  0  0  0  0  0
    5.3918   -0.4229   17.2636 H   0  0  0  0  0  0
    6.5039   -2.0070   20.9288 H   0  0  0  0  0  0
    7.2433    2.1601   24.0873 H   0  0  0  0  0  0
    6.9049    2.9079   22.5461 H   0  0  0  0  0  0
    5.3303    3.2957   25.1716 H   0  0  0  0  0  0
    6.2650    4.4983   24.2675 H   0  0  0  0  0  0
    2.5202    4.5994   24.2729 H   0  0  0  0  0  0
    3.9674    5.2053   25.1162 H   0  0  0  0  0  0
    3.4257    6.1717   22.2973 H   0  0  0  0  0  0
    4.1309    8.3684   23.7910 H   0  0  0  0  0  0
    4.9374    7.1266   24.6902 H   0  0  0  0  0  0
    5.5234    6.6418   21.9146 H   0  0  0  0  0  0
    6.0177    9.5587   22.6790 H   0  0  0  0  0  0
    6.7729    8.7619   21.3402 H   0  0  0  0  0  0
    5.3062    7.7406   19.4846 H   0  0  0  0  0  0
    3.3957    8.2840   18.0172 H   0  0  0  0  0  0
    1.7104    9.9350   18.7495 H   0  0  0  0  0  0
    1.9214   11.0502   20.9444 H   0  0  0  0  0  0
    3.8265   10.5144   22.4196 H   0  0  0  0  0  0
    6.9110    5.0908   22.6853 H   0  0  0  0  0  0
    8.2448    3.9282   24.1481 H   0  0  0  0  0  0
   10.6919    4.9661   22.9750 H   0  0  0  0  0  0
   12.7156    6.1518   23.7242 H   0  0  0  0  0  0
   12.6830    7.4792   25.8117 H   0  0  0  0  0  0
   10.6210    7.6280   27.1555 H   0  0  0  0  0  0
    8.1255    6.2320   27.5402 H   0  0  0  0  0  0
    7.5428    7.2298   26.2186 H   0  0  0  0  0  0
    6.3702    5.2659   25.6885 H   0  0  0  0  0  0
    7.2653    4.0904   27.4430 H   0  0  0  0  0  0
    1.4599    6.5578   23.1613 H   0  0  0  0  0  0
    4.7104    4.5232   22.5906 H   0  0  0  0  0  0
  1  2  1  0  0  0
  1 46  1  0  0  0
  1 47  1  0  0  0
  1 48  1  0  0  0
  2  3  1  0  0  0
  2  4  1  0  0  0
  2  5  1  0  0  0
  3 49  1  0  0  0
  3 50  1  0  0  0
  3 51  1  0  0  0
  4 52  1  0  0  0
  4 53  1  0  0  0
  4 54  1  0  0  0
  5  6  1  0  0  0
  5 55  1  0  0  0
  6  7  2  0  0  0
  6  8  1  0  0  0
  8  9  1  0  0  0
  8 20  1  0  0  0
  8 56  1  0  0  0
  9 10  1  0  0  0
  9 57  1  0  0  0
  9 58  1  0  0  0
 10 11  1  0  0  0
 10 18  1  0  0  0
 11 12  1  0  0  0
 11 59  1  0  0  0
 11 60  1  0  0  0
 12 13  2  0  0  0
 12 17  1  0  0  0
 13 14  1  0  0  0
 13 61  1  0  0  0
 14 15  2  0  0  0
 14 62  1  0  0  0
 15 16  1  0  0  0
 15 63  1  0  0  0
 16 17  2  0  0  0
 17 64  1  0  0  0
 18 19  1  0  0  0
 18 65  1  0  0  0
 18 66  1  0  0  0
 19 20  1  0  0  0
 19 67  1  0  0  0
 19 68  1  0  0  0
 20 21  1  0  0  0
 20 93  1  0  0  0
 21 22  1  0  0  0
 21 69  1  0  0  0
 21 70  1  0  0  0
 22 23  1  0  0  0
 22 45  1  0  0  0
 22 71  1  0  0  0
 23 24  1  0  0  0
 23 72  1  0  0  0
 23 73  1  0  0  0
 24 25  1  0  0  0
 24 32  1  0  0  0
 24 74  1  0  0  0
 25 26  1  0  0  0
 25 75  1  0  0  0
 25 76  1  0  0  0
 26 27  2  0  0  0
 26 31  1  0  0  0
 27 28  1  0  0  0
 27 77  1  0  0  0
 28 29  2  0  0  0
 28 78  1  0  0  0
 29 30  1  0  0  0
 29 79  1  0  0  0
 30 31  2  0  0  0
 30 80  1  0  0  0
 31 81  1  0  0  0
 32 33  2  0  0  0
 32 34  1  0  0  0
 34 35  1  0  0  0
 34 82  1  0  0  0
 35 36  1  0  0  0
 35 43  1  0  0  0
 35 83  1  0  0  0
 36 37  2  0  0  0
 36 41  1  0  0  0
 37 38  1  0  0  0
 37 84  1  0  0  0
 38 39  2  0  0  0
 38 85  1  0  0  0
 39 40  1  0  0  0
 39 86  1  0  0  0
 40 41  2  0  0  0
 40 87  1  0  0  0
 41 42  1  0  0  0
 42 43  1  0  0  0
 42 88  1  0  0  0
 42 89  1  0  0  0
 43 44  1  0  0  0
 43 90  1  0  0  0
 44 91  1  0  0  0
 45 92  1  0  0  0
M  CHG  1  20   1
M  END
> <s_m_entry_id>
2470

> <s_m_entry_name>
Compounds-withfrags-for-validation-docking.1913

> <s_m_Source_Path>
/home/rodolpho/data/melina/maestro/glide-dock_XP_5RGK_M-PRO_VALIDATION

> <s_m_Source_File>
glide-dock_XP_5RGK_M-PRO_VALIDATION_pv.maegz

> <i_m_Source_File_Index>
2470

> <CID>
Indinavir

> <Potency>
43.13

> <pIC50>
4.36522

> <Source>
https://doi.org/10.1101/2020.03.23.004580

> <smiles>
C(C(C([H])([H])[H])(C([H])([H])[H])N(C(=O)C1(C([H])([H])N(C(C2=C([H])C([H])=C([H])N=C2[H])([H])[H])C([H])([H])C([H])([H])N1C(C(C(C(C(C1=C([H])C([H])=C([H])C([H])=C1[H])([H])[H])(C(=O)N(C1(C2=C(C(=C(C([H])=C2C([H])([H])C1(O[H])[H])[H])[H])[H])[H])[H])[H])([H])[H])(O[H])[H])([H])[H])[H])[H])([H])([H])[H]

> <Outcome>
Inactive

> <StandardizerResult>
Clear Stereo (ID: ClearStereo)
Wedge Clean (ID: WedgeClean)
Mesomerize (ID: Mesomerize)
Tautomerize (ID: Tautomerize)
Aromatize (ID: Aromatize)
Add Explicit Hydrogens (ID: AddExplicitH)
Neutralize (ID: Neutralize)
Clean 2D (ID: Clean2D)

> <chiral flag>
0

> <version>
0

> <i_lp_mmshare_version>
41011

> <i_f3d_flags>
0

> <s_epik_input>
W2NIXTFuW2NIXVtjSF1bY0hdYzFbQ0gyXU4oW0NIMl1bQ0BIXTJDKD1PKVtOSF1DKFtDSDNdKShbQ0gzXSlbQ0gzXSlbQ0gyXVtDSDJdTjJbQ0gyXVtDQEBIXShbT0hdKVtDSDJdW0NAQEhdKFtDSDJdYzNbY0hdW2NIXVtjSF1bY0hdW2NIXTMpQyg9TylbTkhdW0NAQEhdNFtDQEBIXShbT0hdKVtDSDJdYyhjNDUpW2NIXVtjSF1bY0hdW2NIXTU=

> <s_epik_cmdline>
J2VwaWtfcHl0aG9uJywgJy1waHQnLCAnMC41JywgJy1waCcsICc3LjQnLCAnLXRuJywgJzgnLCAnLW1hJywgJzIwMCcsICctaW1hZScsICc8aW5maWxlLm1hZT4nLCAnLW9tYWUnLCAnPG91dGZpbGUubWFlPic=

> <r_epik_Ionization_Penalty>
0.3395

> <r_epik_Ionization_Penalty_Charging>
0.3352

> <r_epik_Ionization_Penalty_Neutral>
0.0044

> <r_epik_State_Penalty>
0.5191

> <r_epik_Charging_Adjusted_Penalty>
0.854238

> <i_epik_Tot_Q>
1

> <i_epik_Tot_abs_Q>
1

> <s_lp_Force_Field>
OPLS3

> <r_lp_Energy>
56.0365

> <b_lp_Chiralities_Consistent>
1

> <s_lp_Variant>
ligprep_COVID_compounds-withfrags-smallmolecules-forvalidation.maegz:4-31

> <i_glide_original_lignum>
50

> <s_i_glide_gridfile>
glide-grid_5RGK_M-PRO_COVID

> <i_i_glide_lignum>
50

> <r_i_docking_score>
-3.64370370897599

> <r_i_glide_ligand_efficiency>
-0.0809711935327998

> <r_i_glide_ligand_efficiency_sa>
-0.288005895767938

> <r_i_glide_ligand_efficiency_ln>
-0.758052747978587

> <r_glide_XP_GScore>
-4.16277570897599

> <r_i_glide_gscore>
-4.16277570897599

> <r_i_glide_evdw>
-39.1675300598145

> <r_i_glide_ecoul>
-17.8465404510498

> <r_i_glide_energy>
-57.0140705108643

> <r_i_glide_einternal>
8.4670877456665

> <r_i_glide_emodel>
-78.1033247682106

> <r_glide_XP_HBond>
-1.10076546917476

> <i_i_glide_confnum>
1

> <i_i_glide_posenum>
31

> <r_i_glide_eff_state_penalty>
0.519072

> <i_glide_XP_PoseRank>
1

> <r_lp_tautomer_probability>


> <s_epik_Chemistry_Notes>


> <MW>


> <cLogP>


> <TPSA>


> <Rotatable Bonds>


> <Fraction sp3>


> <HBA>


> <HBD>


> <Structure ID>


> <Submission Fragments>


$$$$
ligprep_COVID_compounds-withfrags-smallmolecules-forvalidation.maegz:39
                    3D
 Structure written by MMmdl.
 70 75  0  0  1  0            999 V2000
    3.2708   -5.0385   25.7708 O   0  0  0  0  0  0
    4.3838   -5.5004   25.5148 C   0  0  0  0  0  0
    4.5920   -6.3043   24.4585 N   0  0  0  0  0  0
    3.6036   -6.5734   23.4200 C   0  0  0  0  0  0
    2.4802   -7.5247   23.8761 C   0  0  0  0  0  0
    1.2375   -7.3462   23.0249 C   0  0  0  0  0  0
    0.1658   -6.5662   23.5072 C   0  0  0  0  0  0
   -0.9628   -6.3328   22.6985 C   0  0  0  0  0  0
   -1.0226   -6.8751   21.4008 C   0  0  0  0  0  0
    0.0410   -7.6603   20.9202 C   0  0  0  0  0  0
   -0.0021   -8.1635   19.6639 F   0  0  0  0  0  0
    1.1636   -7.9065   21.7336 C   0  0  0  0  0  0
    5.6053   -5.1861   26.4129 C   0  0  2  0  0  0
    5.4138   -5.7573   27.8050 C   0  0  0  0  0  0
    4.3161   -6.5437   28.2503 C   0  0  0  0  0  0
    4.2363   -6.9629   29.5902 C   0  0  0  0  0  0
    5.2778   -6.6139   30.4649 C   0  0  0  0  0  0
    6.3539   -5.9123   30.0739 N   0  0  0  0  0  0
    6.4067   -5.5197   28.7864 C   0  0  0  0  0  0
    5.9393   -3.7263   26.4790 N   0  0  0  0  0  0
    7.1686   -3.1908   26.2103 C   0  0  0  0  0  0
    7.3860   -1.9786   26.2764 O   0  0  0  0  0  0
    8.3148   -4.0356   25.8027 C   0  0  0  0  0  0
    9.3440   -3.7303   24.9542 C   0  0  0  0  0  0
   10.2321   -4.8373   24.9758 C   0  0  0  0  0  0
    9.6661   -5.7553   25.8057 C   0  0  0  0  0  0
    8.5372   -5.2563   26.3672 O   0  0  0  0  0  0
    4.8809   -2.8084   26.7875 C   0  0  0  0  0  0
    4.3062   -2.7598   28.0751 C   0  0  0  0  0  0
    3.2366   -1.8844   28.3449 C   0  0  0  0  0  0
    2.7057   -1.0407   27.3391 C   0  0  0  0  0  0
    1.5704   -0.1521   27.6219 C   0  0  0  0  0  0
    0.9320   -0.1712   28.8492 N   0  0  0  0  0  0
   -0.1033    0.6873   28.9415 N   0  0  0  0  0  0
   -0.1147    1.2576   27.7506 C   0  0  0  0  0  0
    0.9029    0.7928   26.8828 C   0  0  0  0  0  0
    1.0193    1.3329   25.4820 C   0  0  0  0  0  0
    0.2594    2.5362   25.3308 O   0  0  0  0  0  0
   -1.0843    2.4598   25.8190 C   0  0  0  0  0  0
   -1.1034    2.3074   27.3564 C   0  0  0  0  0  0
    3.2978   -1.0870   26.0567 C   0  0  0  0  0  0
    4.3779   -1.9489   25.7840 C   0  0  0  0  0  0
    5.5215   -6.6728   24.3200 H   0  0  0  0  0  0
    3.1786   -5.6254   23.0994 H   0  0  0  0  0  0
    4.1066   -6.9638   22.5371 H   0  0  0  0  0  0
    2.8119   -8.5603   23.8207 H   0  0  0  0  0  0
    2.2134   -7.3488   24.9185 H   0  0  0  0  0  0
    0.2158   -6.1262   24.4927 H   0  0  0  0  0  0
   -1.7760   -5.7281   23.0702 H   0  0  0  0  0  0
   -1.8790   -6.6832   20.7720 H   0  0  0  0  0  0
    1.9751   -8.5053   21.3501 H   0  0  0  0  0  0
    6.3932   -5.7573   25.9368 H   0  0  0  0  0  0
    3.5094   -6.8285   27.5927 H   0  0  0  0  0  0
    3.3975   -7.5489   29.9348 H   0  0  0  0  0  0
    5.2519   -6.9192   31.5003 H   0  0  0  0  0  0
    7.2861   -4.9436   28.5470 H   0  0  0  0  0  0
    9.4546   -2.8063   24.4074 H   0  0  0  0  0  0
   11.1740   -4.9531   24.4647 H   0  0  0  0  0  0
    9.9554   -6.7391   26.1472 H   0  0  0  0  0  0
    4.6766   -3.3897   28.8699 H   0  0  0  0  0  0
    2.8295   -1.8812   29.3444 H   0  0  0  0  0  0
    1.1900   -0.7672   29.6225 H   0  0  0  0  0  0
    0.6618    0.6048   24.7533 H   0  0  0  0  0  0
    2.0513    1.5649   25.2210 H   0  0  0  0  0  0
   -1.6309    3.3567   25.5261 H   0  0  0  0  0  0
   -1.5859    1.6148   25.3444 H   0  0  0  0  0  0
   -0.8353    3.2553   27.8222 H   0  0  0  0  0  0
   -2.1065    2.0544   27.7013 H   0  0  0  0  0  0
    2.9308   -0.4717   25.2529 H   0  0  0  0  0  0
    4.8086   -1.9610   24.7941 H   0  0  0  0  0  0
  1  2  2  0  0  0
  2  3  1  0  0  0
  2 13  1  0  0  0
  3  4  1  0  0  0
  3 43  1  0  0  0
  4  5  1  0  0  0
  4 44  1  0  0  0
  4 45  1  0  0  0
  5  6  1  0  0  0
  5 46  1  0  0  0
  5 47  1  0  0  0
  6  7  2  0  0  0
  6 12  1  0  0  0
  7  8  1  0  0  0
  7 48  1  0  0  0
  8  9  2  0  0  0
  8 49  1  0  0  0
  9 10  1  0  0  0
  9 50  1  0  0  0
 10 11  1  0  0  0
 10 12  2  0  0  0
 12 51  1  0  0  0
 13 14  1  0  0  0
 13 20  1  0  0  0
 13 52  1  0  0  0
 14 15  2  0  0  0
 14 19  1  0  0  0
 15 16  1  0  0  0
 15 53  1  0  0  0
 16 17  2  0  0  0
 16 54  1  0  0  0
 17 18  1  0  0  0
 17 55  1  0  0  0
 18 19  2  0  0  0
 19 56  1  0  0  0
 20 21  1  0  0  0
 20 28  1  0  0  0
 21 22  2  0  0  0
 21 23  1  0  0  0
 23 24  2  0  0  0
 23 27  1  0  0  0
 24 25  1  0  0  0
 24 57  1  0  0  0
 25 26  2  0  0  0
 25 58  1  0  0  0
 26 27  1  0  0  0
 26 59  1  0  0  0
 28 29  2  0  0  0
 28 42  1  0  0  0
 29 30  1  0  0  0
 29 60  1  0  0  0
 30 31  2  0  0  0
 30 61  1  0  0  0
 31 41  1  0  0  0
 31 32  1  0  0  0
 32 33  1  0  0  0
 32 36  2  0  0  0
 33 34  1  0  0  0
 33 62  1  0  0  0
 34 35  2  0  0  0
 35 40  1  0  0  0
 35 36  1  0  0  0
 36 37  1  0  0  0
 37 38  1  0  0  0
 37 63  1  0  0  0
 37 64  1  0  0  0
 38 39  1  0  0  0
 39 40  1  0  0  0
 39 65  1  0  0  0
 39 66  1  0  0  0
 40 67  1  0  0  0
 40 68  1  0  0  0
 41 42  2  0  0  0
 41 69  1  0  0  0
 42 70  1  0  0  0
M  END
> <s_m_entry_id>
2489

> <s_m_entry_name>
Compounds-withfrags-for-validation-docking.1878

> <s_m_Source_Path>
/home/rodolpho/data/melina/maestro/glide-dock_XP_5RGK_M-PRO_VALIDATION

> <s_m_Source_File>
glide-dock_XP_5RGK_M-PRO_VALIDATION_pv.maegz

> <i_m_Source_File_Index>
2489

> <CID>
ALP-POS-b0bc6a46-16

> <Potency>
43.0301

> <pIC50>
4.36623

> <Source>
Postera

> <smiles>
O=C(NCCc1cccc(F)c1)C(c1cccnc1)N(C(=O)c1ccco1)c1ccc(-c2n[nH]c3c2COCC3)cc1

> <Outcome>
Inactive

> <StandardizerResult>
Clear Stereo (ID: ClearStereo)
Wedge Clean (ID: WedgeClean)
Mesomerize (ID: Mesomerize)
Tautomerize (ID: Tautomerize)
Aromatize (ID: Aromatize)
Add Explicit Hydrogens (ID: AddExplicitH)
Neutralize (ID: Neutralize)
Clean 2D (ID: Clean2D)

> <chiral flag>
0

> <version>
0

> <i_lp_mmshare_version>
41011

> <i_f3d_flags>
0

> <s_epik_input>
RmMoW2NIXTEpW2NIXVtjSF1bY0hdYzFbQ0gyXVtDSDJdW05IXUMoPU8pW0NASF0oYzJbY0hdW2NIXVtjSF1uW2NIXTIpTihDKD1PKWMzW2NIXVtjSF1bY0hdbzMpYzRbY0hdW2NIXWMoW2NIXVtjSF00KS1jKG5bbkhdNSljKGM1NilbQ0gyXU9bQ0gyXVtDSDJdNg==

> <s_epik_cmdline>
J2VwaWtfcHl0aG9uJywgJy1waHQnLCAnMC41JywgJy1waCcsICc3LjQnLCAnLXRuJywgJzgnLCAnLW1hJywgJzIwMCcsICctaW1hZScsICc8aW5maWxlLm1hZT4nLCAnLW9tYWUnLCAnPG91dGZpbGUubWFlPic=

> <r_lp_tautomer_probability>
0.5

> <r_epik_Ionization_Penalty>
6.0E-4

> <r_epik_Ionization_Penalty_Charging>
0.0

> <r_epik_Ionization_Penalty_Neutral>
6.0E-4

> <r_epik_State_Penalty>
0.4107

> <r_epik_Charging_Adjusted_Penalty>
0.41068

> <i_epik_Tot_Q>
0

> <i_epik_Tot_abs_Q>
0

> <s_lp_Force_Field>
OPLS3

> <r_lp_Energy>
72.3047

> <b_lp_Chiralities_Consistent>
1

> <s_lp_Variant>
ligprep_COVID_compounds-withfrags-smallmolecules-forvalidation.maegz:39-4

> <i_glide_original_lignum>
184

> <s_i_glide_gridfile>
glide-grid_5RGK_M-PRO_COVID

> <i_i_glide_lignum>
184

> <r_i_docking_score>
-3.63518801073105

> <r_i_glide_ligand_efficiency>
-0.0865520954935963

> <r_i_glide_ligand_efficiency_sa>
-0.300857389731662

> <r_i_glide_ligand_efficiency_ln>
-0.767294535841486

> <r_glide_XP_GScore>
-4.04586801073105

> <r_i_glide_gscore>
-4.04586801073105

> <r_i_glide_evdw>
-36.5476493835449

> <r_i_glide_ecoul>
-8.56378173828125

> <r_i_glide_energy>
-45.1114311218262

> <r_i_glide_einternal>
4.96174716949463

> <r_i_glide_emodel>
-60.5769598555583

> <r_glide_XP_HBond>
-0.7

> <i_i_glide_confnum>
1

> <i_i_glide_posenum>
6

> <r_i_glide_eff_state_penalty>
0.41068

> <i_glide_XP_PoseRank>
1

> <MW>
565.21

> <cLogP>
5.02

> <TPSA>
113.35

> <Rotatable Bonds>
9

> <Fraction sp3>
0.19

> <HBA>
6

> <HBD>
2

> <s_epik_Chemistry_Notes>


> <Structure ID>


> <Submission Fragments>


$$$$
ligprep_COVID_compounds-withfrags-smallmolecules-forvalidation.maegz:6
                    3D
 Structure written by MMmdl.
 57 60  0  0  1  0            999 V2000
    3.7002    0.2255   24.2292 C   0  0  0  0  0  0
    3.8400    1.3412   23.1542 C   0  0  1  0  0  0
    4.5921    0.8370   21.8957 C   0  0  0  0  0  0
    5.6890   -0.0319   22.0346 C   0  0  0  0  0  0
    6.3798   -0.5322   20.9420 C   0  0  0  0  0  0
    5.9957   -0.1644   19.6653 C   0  0  0  0  0  0
    4.9371    0.7190   19.4776 C   0  0  0  0  0  0
    4.6564    1.0323   18.1691 O   0  0  0  0  0  0
    4.2233    1.2538   20.5840 C   0  0  0  0  0  0
    3.1058    2.2563   20.3572 C   0  0  0  0  0  0
    2.7026    2.5640   19.2334 O   0  0  0  0  0  0
    2.5517    2.8571   21.5854 C   0  0  0  0  0  0
    2.4170    1.8810   22.7654 C   0  0  2  0  0  0
    1.5720    2.4680   23.9539 C   0  0  1  0  0  0
    0.6802    3.6871   23.5771 C   0  0  1  0  0  0
   -0.2645    4.1831   24.7096 C   0  0  1  0  0  0
    0.5758    4.5616   25.9719 N   0  3  0  0  0  0
    1.9267    3.8362   26.1681 C   0  0  0  0  0  0
    0.7773    6.0855   26.0958 C   0  0  0  0  0  0
   -1.1238    5.3269   24.1616 C   0  0  0  0  0  0
   -2.2594    5.3361   24.7789 O   0  5  0  0  0  0
   -0.7570    6.1896   23.1649 C   0  0  0  0  0  0
   -1.6971    7.2158   22.7038 C   0  0  0  0  0  0
   -2.9916    6.8761   22.6946 N   0  0  0  0  0  0
   -1.3331    8.3231   22.3100 O   0  0  0  0  0  0
    0.6239    6.0942   22.5908 C   0  0  0  0  0  0
    1.0933    7.0301   21.9347 O   0  0  0  0  0  0
    1.5042    4.8207   22.8790 C   0  0  2  0  0  0
    2.1587    4.1609   21.6302 C   0  0  0  0  0  0
    2.3747    5.0433   20.6068 O   0  0  0  0  0  0
    2.5648    5.2708   23.7089 O   0  0  0  0  0  0
    0.7874    1.4388   24.5352 O   0  0  0  0  0  0
    4.5904    2.3669   23.7851 O   0  0  0  0  0  0
    3.1631   -0.6377   23.8343 H   0  0  0  0  0  0
    3.1617    0.5656   25.1130 H   0  0  0  0  0  0
    4.6588   -0.1292   24.6058 H   0  0  0  0  0  0
    6.0317   -0.3389   23.0096 H   0  0  0  0  0  0
    7.2123   -1.2049   21.0863 H   0  0  0  0  0  0
    6.5359   -0.5606   18.8173 H   0  0  0  0  0  0
    4.2810    1.9092   18.0659 H   0  0  0  0  0  0
    1.8453    1.0401   22.3618 H   0  0  0  0  0  0
    2.2439    2.7919   24.7486 H   0  0  0  0  0  0
   -0.0040    3.3047   22.8132 H   0  0  0  0  0  0
   -0.9006    3.3387   24.9913 H   0  0  0  0  0  0
    2.5978    4.1510   25.3676 H   0  0  0  0  0  0
    1.7413    2.7635   26.1398 H   0  0  0  0  0  0
    2.3093    4.1292   27.1463 H   0  0  0  0  0  0
    1.3805    6.4062   25.2450 H   0  0  0  0  0  0
    1.2812    6.2753   27.0440 H   0  0  0  0  0  0
   -0.2103    6.5471   26.0867 H   0  0  0  0  0  0
   -3.2846    5.9783   23.0509 H   0  0  0  0  0  0
   -3.6843    7.5339   22.3684 H   0  0  0  0  0  0
    3.0289    4.6821   20.0026 H   0  0  0  0  0  0
    3.3744    5.2687   23.1926 H   0  0  0  0  0  0
   -0.1395    1.6713   24.4409 H   0  0  0  0  0  0
    4.7955    3.0381   23.1302 H   0  0  0  0  0  0
    0.0042    4.2892   26.7599 H   0  0  0  0  0  0
  1  2  1  0  0  0
  1 34  1  0  0  0
  1 35  1  0  0  0
  1 36  1  0  0  0
  2  3  1  0  0  0
  2 33  1  0  0  0
  2 13  1  0  0  0
  3  4  2  0  0  0
  3  9  1  0  0  0
  4  5  1  0  0  0
  4 37  1  0  0  0
  5  6  2  0  0  0
  5 38  1  0  0  0
  6  7  1  0  0  0
  6 39  1  0  0  0
  7  8  1  0  0  0
  7  9  2  0  0  0
  8 40  1  0  0  0
  9 10  1  0  0  0
 10 11  2  0  0  0
 10 12  1  0  0  0
 12 13  1  0  0  0
 12 29  2  0  0  0
 13 14  1  0  0  0
 13 41  1  0  0  0
 14 15  1  0  0  0
 14 32  1  0  0  0
 14 42  1  0  0  0
 15 16  1  0  0  0
 15 28  1  0  0  0
 15 43  1  0  0  0
 16 17  1  0  0  0
 16 20  1  0  0  0
 16 44  1  0  0  0
 17 18  1  0  0  0
 17 19  1  0  0  0
 17 57  1  0  0  0
 18 45  1  0  0  0
 18 46  1  0  0  0
 18 47  1  0  0  0
 19 48  1  0  0  0
 19 49  1  0  0  0
 19 50  1  0  0  0
 20 21  1  0  0  0
 20 22  2  0  0  0
 22 23  1  0  0  0
 22 26  1  0  0  0
 23 24  1  0  0  0
 23 25  2  0  0  0
 24 51  1  0  0  0
 24 52  1  0  0  0
 26 27  2  0  0  0
 26 28  1  0  0  0
 28 29  1  0  0  0
 28 31  1  0  0  0
 29 30  1  0  0  0
 30 53  1  0  0  0
 31 54  1  0  0  0
 32 55  1  0  0  0
 33 56  1  0  0  0
M  CHG  2  17   1  21  -1
M  END
> <s_m_entry_id>
2513

> <s_m_entry_name>
Compounds-withfrags-for-validation-docking.1911

> <s_m_Source_Path>
/home/rodolpho/data/melina/maestro/glide-dock_XP_5RGK_M-PRO_VALIDATION

> <s_m_Source_File>
glide-dock_XP_5RGK_M-PRO_VALIDATION_pv.maegz

> <i_m_Source_File_Index>
2513

> <CID>
Oxitetracyclin

> <Potency>
15.15

> <pIC50>
4.81959

> <Source>
https://doi.org/10.1101/2020.03.23.004580

> <smiles>
C(C1(C2=C(C(=C(C(O[H])=C2C(O[H])=C2C1(C(C1(C(N(C([H])([H])[H])C([H])([H])[H])([H])C(=O)C(=C(N([H])[H])O[H])C(=O)C1(C2=O)O[H])[H])(O[H])[H])[H])[H])[H])[H])O[H])([H])([H])[H]

> <Outcome>
Inactive

> <StandardizerResult>
Clear Stereo (ID: ClearStereo)
Wedge Clean (ID: WedgeClean)
Mesomerize (ID: Mesomerize)
Tautomerize (ID: Tautomerize)
Aromatize (ID: Aromatize)
Add Explicit Hydrogens (ID: AddExplicitH)
Neutralize (ID: Neutralize)
Clean 2D (ID: Clean2D)

> <chiral flag>
0

> <version>
0

> <i_lp_mmshare_version>
41011

> <i_f3d_flags>
0

> <s_epik_input>
W09IXWMxW2NIXVtjSF1bY0hdYyhbQ0BAXTIoW0NIM10pW09IXSljMUMoPU8pQyg9QzNbT0hdKVtDQEBIXTJbQ0BIXShbT0hdKVtDQEhdKFtDQEBdMzRbT0hdKVtDQEBIXShOKFtDSDNdKVtDSDNdKUMoPU8pW0NASF0oQzQ9TylDKD1PKVtOSDJd

> <s_epik_cmdline>
J2VwaWtfcHl0aG9uJywgJy1waHQnLCAnMC41JywgJy1waCcsICc3LjQnLCAnLXRuJywgJzgnLCAnLW1hJywgJzIwMCcsICctaW1hZScsICc8aW5maWxlLm1hZT4nLCAnLW9tYWUnLCAnPG91dGZpbGUubWFlPic=

> <r_epik_Ionization_Penalty>
0.6144

> <r_epik_Ionization_Penalty_Charging>
0.5087

> <r_epik_Ionization_Penalty_Neutral>
0.1057

> <r_epik_State_Penalty>
0.5157

> <r_epik_Charging_Adjusted_Penalty>
1.02439

> <i_epik_Tot_Q>
0

> <i_epik_Tot_abs_Q>
2

> <s_lp_Force_Field>
OPLS3

> <r_lp_Energy>
59.1864

> <b_lp_Chiralities_Consistent>
1

> <s_lp_Variant>
ligprep_COVID_compounds-withfrags-smallmolecules-forvalidation.maegz:6-29

> <i_glide_original_lignum>
81

> <s_i_glide_gridfile>
glide-grid_5RGK_M-PRO_COVID

> <i_i_glide_lignum>
81

> <r_i_docking_score>
-3.61103122053428

> <r_i_glide_ligand_efficiency>
-0.109425188501039

> <r_i_glide_ligand_efficiency_sa>
-0.350985048274273

> <r_i_glide_ligand_efficiency_ln>
-0.803074646527802

> <r_glide_XP_GScore>
-4.12673822053428

> <r_i_glide_gscore>
-4.12673822053428

> <r_i_glide_evdw>
-14.882420539856

> <r_i_glide_ecoul>
-10.0021829605103

> <r_i_glide_energy>
-24.8846035003662

> <r_i_glide_einternal>
4.62616539001465

> <r_i_glide_emodel>
-28.8478358382658

> <r_glide_XP_HBond>
-1.99689583672758

> <i_i_glide_confnum>
1

> <i_i_glide_posenum>
31

> <r_i_glide_eff_state_penalty>
0.515707

> <i_glide_XP_PoseRank>
1

> <r_lp_tautomer_probability>


> <s_epik_Chemistry_Notes>


> <MW>


> <cLogP>


> <TPSA>


> <Rotatable Bonds>


> <Fraction sp3>


> <HBA>


> <HBD>


> <Structure ID>


> <Submission Fragments>


$$$$
ligprep_COVID_compounds-withfrags-smallmolecules-forvalidation.maegz:25
                    3D
 Structure written by MMmdl.
 75 78  0  0  1  0            999 V2000
    9.1362    5.3985   24.3835 C   0  0  0  0  0  0
    8.7861    4.2174   23.4821 C   0  0  0  0  0  0
    7.9790    4.3768   22.5746 O   0  0  0  0  0  0
    9.4808    2.9301   23.7705 C   0  0  0  0  0  0
   10.8929    3.0404   23.7727 C   0  0  0  0  0  0
   11.7056    1.9371   24.0592 C   0  0  0  0  0  0
   11.1130    0.6927   24.2693 C   0  0  0  0  0  0
    9.7234    0.5468   24.1715 C   0  0  0  0  0  0
    8.8493    1.6396   23.9078 C   0  0  0  0  0  0
    7.3277    1.4545   23.7710 C   0  0  0  0  0  0
    6.6242    2.4167   24.0703 O   0  0  0  0  0  0
    6.7679    0.2650   23.3431 N   0  0  0  0  0  0
    7.0956   -0.9778   24.0041 C   0  0  0  0  0  0
    7.2396   -2.1706   23.2685 C   0  0  0  0  0  0
    7.5395   -3.3929   23.8887 C   0  0  0  0  0  0
    7.7053   -3.4715   25.2874 C   0  0  0  0  0  0
    7.9862   -4.8304   25.9489 C   0  0  0  0  0  0
    8.5564   -4.6887   27.3707 C   0  0  0  0  0  0
    9.0157   -5.6541   25.1421 C   0  0  0  0  0  0
    6.6580   -5.5978   26.0373 C   0  0  0  0  0  0
    7.5557   -2.2832   26.0388 C   0  0  0  0  0  0
    7.2560   -1.0590   25.4080 C   0  0  0  0  0  0
    5.4769    0.1702   22.5648 C   0  0  1  0  0  0
    4.3288    1.2081   22.8378 C   0  0  0  0  0  0
    3.9814    1.4136   24.0044 O   0  0  0  0  0  0
    3.6912    1.8053   21.8153 N   0  0  0  0  0  0
    2.9066    3.0367   21.8798 C   0  0  0  0  0  0
    1.6671    3.0136   22.7992 C   0  0  0  0  0  0
    0.6892    1.8773   22.5459 C   0  0  0  0  0  0
    0.0108    1.7824   21.3121 C   0  0  0  0  0  0
   -0.9437    0.7677   21.1058 C   0  0  0  0  0  0
   -1.2138   -0.1640   22.1258 C   0  0  0  0  0  0
   -0.5297   -0.0810   23.3535 C   0  0  0  0  0  0
   -0.7769   -0.9891   24.3269 F   0  0  0  0  0  0
    0.4126    0.9423   23.5662 C   0  0  0  0  0  0
    5.7403    0.0498   21.0670 C   0  0  0  0  0  0
    5.7443   -1.2112   20.4291 C   0  0  0  0  0  0
    5.8610   -1.3442   19.0373 C   0  0  0  0  0  0
    5.9708   -0.1794   18.2749 C   0  0  0  0  0  0
    6.0307    1.0358   18.8379 N   0  0  0  0  0  0
    5.9728    1.1331   20.1859 C   0  0  0  0  0  0
    9.4178    5.0536   25.3785 H   0  0  0  0  0  0
    8.2738    6.0576   24.4794 H   0  0  0  0  0  0
    9.9640    5.9665   23.9598 H   0  0  0  0  0  0
   11.3679    3.9969   23.5951 H   0  0  0  0  0  0
   12.7809    2.0398   24.1036 H   0  0  0  0  0  0
   11.7238   -0.1617   24.4975 H   0  0  0  0  0  0
    9.3957   -0.4633   24.3039 H   0  0  0  0  0  0
    7.2089   -2.1611   22.1977 H   0  0  0  0  0  0
    7.6388   -4.2673   23.2662 H   0  0  0  0  0  0
    8.7734   -5.6673   27.8025 H   0  0  0  0  0  0
    7.8531   -4.2121   28.0520 H   0  0  0  0  0  0
    9.4867   -4.1210   27.3727 H   0  0  0  0  0  0
    9.9416   -5.0997   24.9868 H   0  0  0  0  0  0
    8.6427   -5.9576   24.1671 H   0  0  0  0  0  0
    9.2820   -6.5673   25.6755 H   0  0  0  0  0  0
    6.7929   -6.5678   26.5169 H   0  0  0  0  0  0
    6.2301   -5.7690   25.0496 H   0  0  0  0  0  0
    5.9250   -5.0477   26.6242 H   0  0  0  0  0  0
    7.6549   -2.2806   27.1124 H   0  0  0  0  0  0
    7.1750   -0.1737   26.0169 H   0  0  0  0  0  0
    4.9884   -0.7537   22.8775 H   0  0  0  0  0  0
    3.9816    1.5391   20.8864 H   0  0  0  0  0  0
    3.5698    3.8483   22.1863 H   0  0  0  0  0  0
    2.6066    3.2733   20.8583 H   0  0  0  0  0  0
    1.9799    3.0054   23.8448 H   0  0  0  0  0  0
    1.1237    3.9490   22.6754 H   0  0  0  0  0  0
    0.2077    2.4980   20.5256 H   0  0  0  0  0  0
   -1.4762    0.7088   20.1692 H   0  0  0  0  0  0
   -1.9464   -0.9424   21.9698 H   0  0  0  0  0  0
    0.9246    1.0024   24.5150 H   0  0  0  0  0  0
    5.5736   -2.1128   20.9984 H   0  0  0  0  0  0
    5.8093   -2.3129   18.5619 H   0  0  0  0  0  0
    6.0113   -0.2267   17.1978 H   0  0  0  0  0  0
    6.0307    2.1379   20.5776 H   0  0  0  0  0  0
  1  2  1  0  0  0
  1 42  1  0  0  0
  1 43  1  0  0  0
  1 44  1  0  0  0
  2  3  2  0  0  0
  2  4  1  0  0  0
  4  5  2  0  0  0
  4  9  1  0  0  0
  5  6  1  0  0  0
  5 45  1  0  0  0
  6  7  2  0  0  0
  6 46  1  0  0  0
  7  8  1  0  0  0
  7 47  1  0  0  0
  8  9  2  0  0  0
  8 48  1  0  0  0
  9 10  1  0  0  0
 10 11  2  0  0  0
 10 12  1  0  0  0
 12 13  1  0  0  0
 12 23  1  0  0  0
 13 14  2  0  0  0
 13 22  1  0  0  0
 14 15  1  0  0  0
 14 49  1  0  0  0
 15 16  2  0  0  0
 15 50  1  0  0  0
 16 17  1  0  0  0
 16 21  1  0  0  0
 17 18  1  0  0  0
 17 19  1  0  0  0
 17 20  1  0  0  0
 18 51  1  0  0  0
 18 52  1  0  0  0
 18 53  1  0  0  0
 19 54  1  0  0  0
 19 55  1  0  0  0
 19 56  1  0  0  0
 20 57  1  0  0  0
 20 58  1  0  0  0
 20 59  1  0  0  0
 21 22  2  0  0  0
 21 60  1  0  0  0
 22 61  1  0  0  0
 23 24  1  0  0  0
 23 36  1  0  0  0
 23 62  1  0  0  0
 24 25  2  0  0  0
 24 26  1  0  0  0
 26 27  1  0  0  0
 26 63  1  0  0  0
 27 28  1  0  0  0
 27 64  1  0  0  0
 27 65  1  0  0  0
 28 29  1  0  0  0
 28 66  1  0  0  0
 28 67  1  0  0  0
 29 30  2  0  0  0
 29 35  1  0  0  0
 30 31  1  0  0  0
 30 68  1  0  0  0
 31 32  2  0  0  0
 31 69  1  0  0  0
 32 33  1  0  0  0
 32 70  1  0  0  0
 33 34  1  0  0  0
 33 35  2  0  0  0
 35 71  1  0  0  0
 36 37  2  0  0  0
 36 41  1  0  0  0
 37 38  1  0  0  0
 37 72  1  0  0  0
 38 39  2  0  0  0
 38 73  1  0  0  0
 39 40  1  0  0  0
 39 74  1  0  0  0
 40 41  2  0  0  0
 41 75  1  0  0  0
M  END
> <s_m_entry_id>
2522

> <s_m_entry_name>
Compounds-withfrags-for-validation-docking.1892

> <s_m_Source_Path>
/home/rodolpho/data/melina/maestro/glide-dock_XP_5RGK_M-PRO_VALIDATION

> <s_m_Source_File>
glide-dock_XP_5RGK_M-PRO_VALIDATION_pv.maegz

> <i_m_Source_File_Index>
2522

> <CID>
ALP-POS-02c6a514-6

> <Potency>
99.5

> <pIC50>
4.00218

> <Source>
Postera

> <smiles>
CC(=O)c1ccccc1C(=O)N(c1ccc(C(C)(C)C)cc1)C(C(=O)NCCc1cccc(F)c1)c1cccnc1

> <Outcome>
Inactive

> <StandardizerResult>
Clear Stereo (ID: ClearStereo)
Wedge Clean (ID: WedgeClean)
Mesomerize (ID: Mesomerize)
Tautomerize (ID: Tautomerize)
Aromatize (ID: Aromatize)
Add Explicit Hydrogens (ID: AddExplicitH)
Neutralize (ID: Neutralize)
Clean 2D (ID: Clean2D)

> <chiral flag>
0

> <version>
0

> <i_lp_mmshare_version>
41011

> <i_f3d_flags>
0

> <s_epik_input>
W0NIM11DKD1PKWMxW2NIXVtjSF1bY0hdW2NIXWMxQyg9TylOKGMyW2NIXVtjSF1jKEMoW0NIM10pKFtDSDNdKVtDSDNdKVtjSF1bY0hdMilbQ0BIXShjM1tjSF1bY0hdW2NIXW5bY0hdMylDKD1PKVtOSF1bQ0gyXVtDSDJdYzRbY0hdW2NIXVtjSF1jKEYpW2NIXTQ=

> <s_epik_cmdline>
J2VwaWtfcHl0aG9uJywgJy1waHQnLCAnMC41JywgJy1waCcsICc3LjQnLCAnLXRuJywgJzgnLCAnLW1hJywgJzIwMCcsICctaW1hZScsICc8aW5maWxlLm1hZT4nLCAnLW9tYWUnLCAnPG91dGZpbGUubWFlPic=

> <r_lp_tautomer_probability>
1.0

> <r_epik_Ionization_Penalty>
6.0E-4

> <r_epik_Ionization_Penalty_Charging>
0.0

> <r_epik_Ionization_Penalty_Neutral>
6.0E-4

> <r_epik_State_Penalty>
0.0

> <r_epik_Charging_Adjusted_Penalty>
0.0

> <i_epik_Tot_Q>
0

> <i_epik_Tot_abs_Q>
0

> <s_lp_Force_Field>
OPLS3

> <r_lp_Energy>
85.6862

> <b_lp_Chiralities_Consistent>
1

> <s_lp_Variant>
ligprep_COVID_compounds-withfrags-smallmolecules-forvalidation.maegz:25-1

> <i_glide_original_lignum>
143

> <s_i_glide_gridfile>
glide-grid_5RGK_M-PRO_COVID

> <i_i_glide_lignum>
143

> <r_i_docking_score>
-3.60275500489864

> <r_i_glide_ligand_efficiency>
-0.0878720732902107

> <r_i_glide_ligand_efficiency_sa>
-0.303001997692406

> <r_i_glide_ligand_efficiency_ln>
-0.764336463708225

> <r_glide_XP_GScore>
-3.60275500489864

> <r_i_glide_gscore>
-3.60275500489864

> <r_i_glide_evdw>
-36.6485328674316

> <r_i_glide_ecoul>
-6.15912675857544

> <r_i_glide_energy>
-42.8076596260071

> <r_i_glide_einternal>
15.079047203064

> <r_i_glide_emodel>
-61.6013053273827

> <r_glide_XP_HBond>
-0.711855385455539

> <i_i_glide_confnum>
3

> <i_i_glide_posenum>
1

> <r_i_glide_eff_state_penalty>
0.0

> <i_glide_XP_PoseRank>
1

> <MW>
551.26

> <cLogP>
6.47

> <TPSA>
79.37

> <Rotatable Bonds>
9

> <Fraction sp3>
0.24

> <HBA>
4

> <HBD>
1

> <s_epik_Chemistry_Notes>


> <Structure ID>


> <Submission Fragments>


$$$$
ligprep_COVID_compounds-withfrags-smallmolecules-forvalidation.maegz:4
                    3D
 Structure written by MMmdl.
 93 97  0  0  1  0            999 V2000
    3.5558    2.1887   21.6965 C   0  0  0  0  0  0
    2.4290    3.1091   22.1998 C   0  0  0  0  0  0
    1.0957    2.6643   21.5664 C   0  0  0  0  0  0
    2.3596    3.0217   23.7380 C   0  0  0  0  0  0
    2.7750    4.4669   21.7712 N   0  0  0  0  0  0
    2.1153    5.6204   21.9947 C   0  0  0  0  0  0
    1.0595    5.6915   22.6211 O   0  0  0  0  0  0
    2.7464    6.9139   21.4485 C   0  0  2  0  0  0
    2.4728    6.9494   19.9131 C   0  0  0  0  0  0
    3.1077    8.0682   19.2102 N   0  0  0  0  0  0
    2.4668    9.3614   19.4556 C   0  0  0  0  0  0
    3.1212   10.4970   18.6881 C   0  0  0  0  0  0
    3.9557   11.4288   19.3404 C   0  0  0  0  0  0
    4.5914   12.4250   18.5775 C   0  0  0  0  0  0
    4.3631   12.4533   17.1880 C   0  0  0  0  0  0
    3.5571   11.5752   16.5541 N   0  0  0  0  0  0
    2.9526   10.6193   17.2923 C   0  0  0  0  0  0
    4.5395    8.0260   19.4982 C   0  0  0  0  0  0
    4.7936    8.1743   20.9975 C   0  0  0  0  0  0
    4.2072    7.0362   21.7623 N   0  3  1  0  0  0
    4.5318    7.1613   23.2194 C   0  0  0  0  0  0
    5.8868    6.5111   23.6172 C   0  0  2  0  0  0
    6.4760    7.0916   24.9344 C   0  0  0  0  0  0
    7.9924    6.8678   25.2122 C   0  0  1  0  0  0
    8.3976    7.4905   26.5757 C   0  0  0  0  0  0
    9.7840    8.1193   26.5615 C   0  0  0  0  0  0
   10.9254    7.2965   26.6203 C   0  0  0  0  0  0
   12.2168    7.8579   26.6009 C   0  0  0  0  0  0
   12.3706    9.2569   26.5310 C   0  0  0  0  0  0
   11.2334   10.0887   26.4835 C   0  0  0  0  0  0
    9.9422    9.5211   26.4963 C   0  0  0  0  0  0
    8.4136    5.3903   25.0685 C   0  0  0  0  0  0
    8.4365    4.6346   26.0373 O   0  0  0  0  0  0
    8.7042    5.0100   23.8153 N   0  0  0  0  0  0
    8.8708    3.6800   23.2364 C   0  0  1  0  0  0
   10.2041    3.0365   23.5041 C   0  0  0  0  0  0
   11.4449    3.4349   22.9737 C   0  0  0  0  0  0
   12.5331    2.5460   23.0972 C   0  0  0  0  0  0
   12.3752    1.3127   23.7704 C   0  0  0  0  0  0
   11.1301    0.9446   24.3287 C   0  0  0  0  0  0
   10.0465    1.8261   24.1711 C   0  0  0  0  0  0
    8.5990    1.5724   24.5205 C   0  0  0  0  0  0
    7.8367    2.5816   23.6296 C   0  0  1  0  0  0
    6.6102    3.0354   24.1687 O   0  0  0  0  0  0
    6.8277    6.6408   22.5707 O   0  0  0  0  0  0
    3.3691    1.1479   21.9628 H   0  0  0  0  0  0
    4.5180    2.4643   22.1296 H   0  0  0  0  0  0
    3.6594    2.2397   20.6107 H   0  0  0  0  0  0
    1.1284    2.7402   20.4774 H   0  0  0  0  0  0
    0.2568    3.2696   21.9140 H   0  0  0  0  0  0
    0.8697    1.6268   21.8182 H   0  0  0  0  0  0
    2.2067    1.9940   24.0658 H   0  0  0  0  0  0
    1.5376    3.6149   24.1445 H   0  0  0  0  0  0
    3.2842    3.3748   24.1978 H   0  0  0  0  0  0
    3.6388    4.5118   21.2322 H   0  0  0  0  0  0
    2.2356    7.7573   21.9149 H   0  0  0  0  0  0
    2.8343    6.0306   19.4506 H   0  0  0  0  0  0
    1.3993    6.9697   19.7207 H   0  0  0  0  0  0
    1.4252    9.2997   19.1366 H   0  0  0  0  0  0
    2.4432    9.6051   20.5165 H   0  0  0  0  0  0
    4.1255   11.3689   20.4063 H   0  0  0  0  0  0
    5.2488   13.1439   19.0469 H   0  0  0  0  0  0
    4.8432   13.1983   16.5711 H   0  0  0  0  0  0
    2.3331    9.9197   16.7534 H   0  0  0  0  0  0
    4.9542    7.0839   19.1343 H   0  0  0  0  0  0
    5.0670    8.8191   18.9708 H   0  0  0  0  0  0
    5.8682    8.2636   21.1276 H   0  0  0  0  0  0
    4.3952    9.1186   21.3691 H   0  0  0  0  0  0
    4.5208    8.2168   23.4931 H   0  0  0  0  0  0
    3.7590    6.7048   23.8390 H   0  0  0  0  0  0
    5.7200    5.4428   23.7433 H   0  0  0  0  0  0
    6.3159    8.1692   24.9253 H   0  0  0  0  0  0
    5.8931    6.7174   25.7739 H   0  0  0  0  0  0
    8.5232    7.4350   24.4437 H   0  0  0  0  0  0
    7.6823    8.2657   26.8568 H   0  0  0  0  0  0
    8.3444    6.7615   27.3864 H   0  0  0  0  0  0
   10.7967    6.2282   26.6830 H   0  0  0  0  0  0
   13.0857    7.2144   26.6360 H   0  0  0  0  0  0
   13.3597    9.6875   26.5124 H   0  0  0  0  0  0
   11.3528   11.1621   26.4264 H   0  0  0  0  0  0
    9.0764   10.1667   26.4523 H   0  0  0  0  0  0
    8.6042    5.7450   23.1271 H   0  0  0  0  0  0
    8.7858    3.8359   22.1649 H   0  0  0  0  0  0
   11.5440    4.3600   22.4227 H   0  0  0  0  0  0
   13.4925    2.8059   22.6713 H   0  0  0  0  0  0
   13.2176    0.6416   23.8471 H   0  0  0  0  0  0
   11.0008   -0.0095   24.8187 H   0  0  0  0  0  0
    8.3017    0.5400   24.3294 H   0  0  0  0  0  0
    8.4490    1.7891   25.5798 H   0  0  0  0  0  0
    7.5845    2.0491   22.7113 H   0  0  0  0  0  0
    6.1805    3.5488   23.4994 H   0  0  0  0  0  0
    6.6438    5.9345   21.9524 H   0  0  0  0  0  0
    4.6425    6.1762   21.4381 H   0  0  0  0  0  0
  1  2  1  0  0  0
  1 46  1  0  0  0
  1 47  1  0  0  0
  1 48  1  0  0  0
  2  3  1  0  0  0
  2  4  1  0  0  0
  2  5  1  0  0  0
  3 49  1  0  0  0
  3 50  1  0  0  0
  3 51  1  0  0  0
  4 52  1  0  0  0
  4 53  1  0  0  0
  4 54  1  0  0  0
  5  6  1  0  0  0
  5 55  1  0  0  0
  6  7  2  0  0  0
  6  8  1  0  0  0
  8  9  1  0  0  0
  8 20  1  0  0  0
  8 56  1  0  0  0
  9 10  1  0  0  0
  9 57  1  0  0  0
  9 58  1  0  0  0
 10 11  1  0  0  0
 10 18  1  0  0  0
 11 12  1  0  0  0
 11 59  1  0  0  0
 11 60  1  0  0  0
 12 13  2  0  0  0
 12 17  1  0  0  0
 13 14  1  0  0  0
 13 61  1  0  0  0
 14 15  2  0  0  0
 14 62  1  0  0  0
 15 16  1  0  0  0
 15 63  1  0  0  0
 16 17  2  0  0  0
 17 64  1  0  0  0
 18 19  1  0  0  0
 18 65  1  0  0  0
 18 66  1  0  0  0
 19 20  1  0  0  0
 19 67  1  0  0  0
 19 68  1  0  0  0
 20 21  1  0  0  0
 20 93  1  0  0  0
 21 22  1  0  0  0
 21 69  1  0  0  0
 21 70  1  0  0  0
 22 23  1  0  0  0
 22 45  1  0  0  0
 22 71  1  0  0  0
 23 24  1  0  0  0
 23 72  1  0  0  0
 23 73  1  0  0  0
 24 25  1  0  0  0
 24 32  1  0  0  0
 24 74  1  0  0  0
 25 26  1  0  0  0
 25 75  1  0  0  0
 25 76  1  0  0  0
 26 27  2  0  0  0
 26 31  1  0  0  0
 27 28  1  0  0  0
 27 77  1  0  0  0
 28 29  2  0  0  0
 28 78  1  0  0  0
 29 30  1  0  0  0
 29 79  1  0  0  0
 30 31  2  0  0  0
 30 80  1  0  0  0
 31 81  1  0  0  0
 32 33  2  0  0  0
 32 34  1  0  0  0
 34 35  1  0  0  0
 34 82  1  0  0  0
 35 36  1  0  0  0
 35 43  1  0  0  0
 35 83  1  0  0  0
 36 37  2  0  0  0
 36 41  1  0  0  0
 37 38  1  0  0  0
 37 84  1  0  0  0
 38 39  2  0  0  0
 38 85  1  0  0  0
 39 40  1  0  0  0
 39 86  1  0  0  0
 40 41  2  0  0  0
 40 87  1  0  0  0
 41 42  1  0  0  0
 42 43  1  0  0  0
 42 88  1  0  0  0
 42 89  1  0  0  0
 43 44  1  0  0  0
 43 90  1  0  0  0
 44 91  1  0  0  0
 45 92  1  0  0  0
M  CHG  1  20   1
M  END
> <s_m_entry_id>
2524

> <s_m_entry_name>
Compounds-withfrags-for-validation-docking.1913

> <s_m_Source_Path>
/home/rodolpho/data/melina/maestro/glide-dock_XP_5RGK_M-PRO_VALIDATION

> <s_m_Source_File>
glide-dock_XP_5RGK_M-PRO_VALIDATION_pv.maegz

> <i_m_Source_File_Index>
2524

> <CID>
Indinavir

> <Potency>
43.13

> <pIC50>
4.36522

> <Source>
https://doi.org/10.1101/2020.03.23.004580

> <smiles>
C(C(C([H])([H])[H])(C([H])([H])[H])N(C(=O)C1(C([H])([H])N(C(C2=C([H])C([H])=C([H])N=C2[H])([H])[H])C([H])([H])C([H])([H])N1C(C(C(C(C(C1=C([H])C([H])=C([H])C([H])=C1[H])([H])[H])(C(=O)N(C1(C2=C(C(=C(C([H])=C2C([H])([H])C1(O[H])[H])[H])[H])[H])[H])[H])[H])([H])[H])(O[H])[H])([H])[H])[H])[H])([H])([H])[H]

> <Outcome>
Inactive

> <StandardizerResult>
Clear Stereo (ID: ClearStereo)
Wedge Clean (ID: WedgeClean)
Mesomerize (ID: Mesomerize)
Tautomerize (ID: Tautomerize)
Aromatize (ID: Aromatize)
Add Explicit Hydrogens (ID: AddExplicitH)
Neutralize (ID: Neutralize)
Clean 2D (ID: Clean2D)

> <chiral flag>
0

> <version>
0

> <i_lp_mmshare_version>
41011

> <i_f3d_flags>
0

> <s_epik_input>
W2NIXTFuW2NIXVtjSF1bY0hdYzFbQ0gyXU4oW0NIMl1bQ0BIXTJDKD1PKVtOSF1DKFtDSDNdKShbQ0gzXSlbQ0gzXSlbQ0gyXVtDSDJdTjJbQ0gyXVtDQEBIXShbT0hdKVtDSDJdW0NAQEhdKFtDSDJdYzNbY0hdW2NIXVtjSF1bY0hdW2NIXTMpQyg9TylbTkhdW0NAQEhdNFtDQEhdKFtPSF0pW0NIMl1jKGM0NSlbY0hdW2NIXVtjSF1bY0hdNQ==

> <s_epik_cmdline>
J2VwaWtfcHl0aG9uJywgJy1waHQnLCAnMC41JywgJy1waCcsICc3LjQnLCAnLXRuJywgJzgnLCAnLW1hJywgJzIwMCcsICctaW1hZScsICc8aW5maWxlLm1hZT4nLCAnLW9tYWUnLCAnPG91dGZpbGUubWFlPic=

> <r_epik_Ionization_Penalty>
0.3395

> <r_epik_Ionization_Penalty_Charging>
0.3352

> <r_epik_Ionization_Penalty_Neutral>
0.0044

> <r_epik_State_Penalty>
0.5191

> <r_epik_Charging_Adjusted_Penalty>
0.854238

> <i_epik_Tot_Q>
1

> <i_epik_Tot_abs_Q>
1

> <s_lp_Force_Field>
OPLS3

> <r_lp_Energy>
52.3101

> <b_lp_Chiralities_Consistent>
1

> <s_lp_Variant>
ligprep_COVID_compounds-withfrags-smallmolecules-forvalidation.maegz:4-5

> <i_glide_original_lignum>
24

> <s_i_glide_gridfile>
glide-grid_5RGK_M-PRO_COVID

> <i_i_glide_lignum>
24

> <r_i_docking_score>
-3.60244224348845

> <r_i_glide_ligand_efficiency>
-0.0800542720775212

> <r_i_glide_ligand_efficiency_sa>
-0.284744503987052

> <r_i_glide_ligand_efficiency_ln>
-0.749468524398223

> <r_glide_XP_GScore>
-4.12151424348845

> <r_i_glide_gscore>
-4.12151424348845

> <r_i_glide_evdw>
-36.366382598877

> <r_i_glide_ecoul>
-16.974235534668

> <r_i_glide_energy>
-53.3406181335449

> <r_i_glide_einternal>
9.41971015930176

> <r_i_glide_emodel>
-79.4766454575933

> <r_glide_XP_HBond>
-1.96627111421384

> <i_i_glide_confnum>
1

> <i_i_glide_posenum>
2

> <r_i_glide_eff_state_penalty>
0.519072

> <i_glide_XP_PoseRank>
1

> <r_lp_tautomer_probability>


> <s_epik_Chemistry_Notes>


> <MW>


> <cLogP>


> <TPSA>


> <Rotatable Bonds>


> <Fraction sp3>


> <HBA>


> <HBD>


> <Structure ID>


> <Submission Fragments>


$$$$
ligprep_COVID_compounds-withfrags-smallmolecules-forvalidation.maegz:6
                    3D
 Structure written by MMmdl.
 57 60  0  0  1  0            999 V2000
   -2.2366    2.8457   23.4800 C   0  0  0  0  0  0
   -1.0500    2.0181   22.9406 C   0  0  2  0  0  0
   -1.4496    0.5362   22.8759 C   0  0  0  0  0  0
   -2.4912    0.1754   21.9882 C   0  0  0  0  0  0
   -2.9606   -1.1441   21.9146 C   0  0  0  0  0  0
   -2.3929   -2.1275   22.7358 C   0  0  0  0  0  0
   -1.3449   -1.8016   23.6174 C   0  0  0  0  0  0
   -0.8250   -2.8293   24.3544 O   0  0  0  0  0  0
   -0.8518   -0.4640   23.6932 C   0  0  0  0  0  0
    0.3026   -0.1048   24.5708 C   0  0  0  0  0  0
    0.5934   -0.7445   25.5820 O   0  0  0  0  0  0
    1.0708    1.0961   24.1708 C   0  0  0  0  0  0
    0.2228    2.3157   23.8168 C   0  0  1  0  0  0
    1.0654    3.5836   23.4415 C   0  0  2  0  0  0
    2.4988    3.2991   22.8943 C   0  0  2  0  0  0
    2.4518    2.8423   21.3917 C   0  0  1  0  0  0
    2.3749    3.9668   20.3871 N   0  3  0  0  0  0
    1.2644    3.8420   19.4123 C   0  0  0  0  0  0
    2.5282    5.3693   20.8528 C   0  0  0  0  0  0
    3.5348    1.8187   20.9420 C   0  0  0  0  0  0
    3.2513    1.4853   19.7707 O   0  5  0  0  0  0
    4.5694    1.4133   21.7842 C   0  0  0  0  0  0
    5.5872    0.4735   21.2524 C   0  0  0  0  0  0
    6.6196    0.2367   22.0635 N   0  0  0  0  0  0
    5.5614   -0.1015   20.1664 O   0  0  0  0  0  0
    4.6190    1.9768   23.1455 C   0  0  0  0  0  0
    5.6667    2.1465   23.7707 O   0  0  0  0  0  0
    3.2769    2.3387   23.8227 C   0  0  2  0  0  0
    2.4262    1.1176   24.2105 C   0  0  0  0  0  0
    3.1749    0.0555   24.5706 O   0  0  0  0  0  0
    3.5782    3.0349   25.0222 O   0  0  0  0  0  0
    1.1809    4.4208   24.5759 O   0  0  0  0  0  0
   -0.8672    2.5007   21.6245 O   0  0  0  0  0  0
   -2.5272    2.5115   24.4767 H   0  0  0  0  0  0
   -3.1201    2.7654   22.8455 H   0  0  0  0  0  0
   -1.9871    3.9051   23.5542 H   0  0  0  0  0  0
   -2.9485    0.9225   21.3559 H   0  0  0  0  0  0
   -3.7584   -1.3996   21.2325 H   0  0  0  0  0  0
   -2.7594   -3.1417   22.6719 H   0  0  0  0  0  0
   -1.3625   -3.6068   24.3358 H   0  0  0  0  0  0
   -0.1939    2.5272   24.8041 H   0  0  0  0  0  0
    0.5205    4.2032   22.7330 H   0  0  0  0  0  0
    3.0742    4.2193   22.9579 H   0  0  0  0  0  0
    1.5277    2.2780   21.3080 H   0  0  0  0  0  0
    0.3178    4.1433   19.8588 H   0  0  0  0  0  0
    1.1538    2.8246   19.0406 H   0  0  0  0  0  0
    1.4483    4.4801   18.5469 H   0  0  0  0  0  0
    1.7233    5.6801   21.5166 H   0  0  0  0  0  0
    2.5280    6.0457   19.9977 H   0  0  0  0  0  0
    3.4864    5.5248   21.3497 H   0  0  0  0  0  0
    6.6846    0.7653   22.9245 H   0  0  0  0  0  0
    7.3584   -0.3887   21.7695 H   0  0  0  0  0  0
    4.0791    0.2364   24.3622 H   0  0  0  0  0  0
    4.3417    3.5700   24.8435 H   0  0  0  0  0  0
    1.8610    4.0548   25.1314 H   0  0  0  0  0  0
   -0.9393    3.4424   21.6422 H   0  0  0  0  0  0
    3.2407    3.8350   19.8485 H   0  0  0  0  0  0
  1  2  1  0  0  0
  1 34  1  0  0  0
  1 35  1  0  0  0
  1 36  1  0  0  0
  2  3  1  0  0  0
  2 33  1  0  0  0
  2 13  1  0  0  0
  3  4  2  0  0  0
  3  9  1  0  0  0
  4  5  1  0  0  0
  4 37  1  0  0  0
  5  6  2  0  0  0
  5 38  1  0  0  0
  6  7  1  0  0  0
  6 39  1  0  0  0
  7  8  1  0  0  0
  7  9  2  0  0  0
  8 40  1  0  0  0
  9 10  1  0  0  0
 10 11  2  0  0  0
 10 12  1  0  0  0
 12 13  1  0  0  0
 12 29  2  0  0  0
 13 14  1  0  0  0
 13 41  1  0  0  0
 14 15  1  0  0  0
 14 32  1  0  0  0
 14 42  1  0  0  0
 15 16  1  0  0  0
 15 28  1  0  0  0
 15 43  1  0  0  0
 16 17  1  0  0  0
 16 20  1  0  0  0
 16 44  1  0  0  0
 17 18  1  0  0  0
 17 19  1  0  0  0
 17 57  1  0  0  0
 18 45  1  0  0  0
 18 46  1  0  0  0
 18 47  1  0  0  0
 19 48  1  0  0  0
 19 49  1  0  0  0
 19 50  1  0  0  0
 20 21  1  0  0  0
 20 22  2  0  0  0
 22 23  1  0  0  0
 22 26  1  0  0  0
 23 24  1  0  0  0
 23 25  2  0  0  0
 24 51  1  0  0  0
 24 52  1  0  0  0
 26 27  2  0  0  0
 26 28  1  0  0  0
 28 29  1  0  0  0
 28 31  1  0  0  0
 29 30  1  0  0  0
 30 53  1  0  0  0
 31 54  1  0  0  0
 32 55  1  0  0  0
 33 56  1  0  0  0
M  CHG  2  17   1  21  -1
M  END
> <s_m_entry_id>
2541

> <s_m_entry_name>
Compounds-withfrags-for-validation-docking.1911

> <s_m_Source_Path>
/home/rodolpho/data/melina/maestro/glide-dock_XP_5RGK_M-PRO_VALIDATION

> <s_m_Source_File>
glide-dock_XP_5RGK_M-PRO_VALIDATION_pv.maegz

> <i_m_Source_File_Index>
2541

> <CID>
Oxitetracyclin

> <Potency>
15.15

> <pIC50>
4.81959

> <Source>
https://doi.org/10.1101/2020.03.23.004580

> <smiles>
C(C1(C2=C(C(=C(C(O[H])=C2C(O[H])=C2C1(C(C1(C(N(C([H])([H])[H])C([H])([H])[H])([H])C(=O)C(=C(N([H])[H])O[H])C(=O)C1(C2=O)O[H])[H])(O[H])[H])[H])[H])[H])[H])O[H])([H])([H])[H]

> <Outcome>
Inactive

> <StandardizerResult>
Clear Stereo (ID: ClearStereo)
Wedge Clean (ID: WedgeClean)
Mesomerize (ID: Mesomerize)
Tautomerize (ID: Tautomerize)
Aromatize (ID: Aromatize)
Add Explicit Hydrogens (ID: AddExplicitH)
Neutralize (ID: Neutralize)
Clean 2D (ID: Clean2D)

> <chiral flag>
0

> <version>
0

> <i_lp_mmshare_version>
41011

> <i_f3d_flags>
0

> <s_epik_input>
W09IXWMxW2NIXVtjSF1bY0hdYyhbQ0BdMihbQ0gzXSlbT0hdKWMxQyg9TylDKD1DM1tPSF0pW0NASF0yW0NAQEhdKFtPSF0pW0NAQEhdKFtDQEBdMzRbT0hdKVtDQEBIXShOKFtDSDNdKVtDSDNdKUMoPU8pW0NASF0oQzQ9TylDKD1PKVtOSDJd

> <s_epik_cmdline>
J2VwaWtfcHl0aG9uJywgJy1waHQnLCAnMC41JywgJy1waCcsICc3LjQnLCAnLXRuJywgJzgnLCAnLW1hJywgJzIwMCcsICctaW1hZScsICc8aW5maWxlLm1hZT4nLCAnLW9tYWUnLCAnPG91dGZpbGUubWFlPic=

> <r_epik_Ionization_Penalty>
0.6144

> <r_epik_Ionization_Penalty_Charging>
0.5087

> <r_epik_Ionization_Penalty_Neutral>
0.1057

> <r_epik_State_Penalty>
0.5157

> <r_epik_Charging_Adjusted_Penalty>
1.02439

> <i_epik_Tot_Q>
0

> <i_epik_Tot_abs_Q>
2

> <s_lp_Force_Field>
OPLS3

> <r_lp_Energy>
57.8133

> <b_lp_Chiralities_Consistent>
1

> <s_lp_Variant>
ligprep_COVID_compounds-withfrags-smallmolecules-forvalidation.maegz:6-34

> <i_glide_original_lignum>
86

> <s_i_glide_gridfile>
glide-grid_5RGK_M-PRO_COVID

> <i_i_glide_lignum>
86

> <r_i_docking_score>
-3.58961097377137

> <r_i_glide_ligand_efficiency>
-0.108776090114284

> <r_i_glide_ligand_efficiency_sa>
-0.348903042917638

> <r_i_glide_ligand_efficiency_ln>
-0.798310894555832

> <r_glide_XP_GScore>
-4.10531797377137

> <r_i_glide_gscore>
-4.10531797377137

> <r_i_glide_evdw>
-18.2285346984863

> <r_i_glide_ecoul>
-10.1597890853882

> <r_i_glide_energy>
-28.3883237838745

> <r_i_glide_einternal>
0.0

> <r_i_glide_emodel>
-33.4466564821336

> <r_glide_XP_HBond>
-1.16405105379464

> <i_i_glide_confnum>
1

> <i_i_glide_posenum>
10

> <r_i_glide_eff_state_penalty>
0.515707

> <i_glide_XP_PoseRank>
1

> <r_lp_tautomer_probability>


> <s_epik_Chemistry_Notes>


> <MW>


> <cLogP>


> <TPSA>


> <Rotatable Bonds>


> <Fraction sp3>


> <HBA>


> <HBD>


> <Structure ID>


> <Submission Fragments>


$$$$
ligprep_COVID_compounds-withfrags-smallmolecules-forvalidation.maegz:36
                    3D
 Structure written by MMmdl.
 69 73  0  0  1  0            999 V2000
    6.9869    0.4290   23.2539 O   0  0  0  0  0  0
    6.6183    1.5218   22.8210 C   0  0  0  0  0  0
    7.1769    2.6692   23.2342 N   0  0  0  0  0  0
    8.0837    2.8094   24.3753 C   0  0  0  0  0  0
    9.2587    3.7881   24.1306 C   0  0  0  0  0  0
   10.5895    3.2265   23.6164 C   0  0  0  0  0  0
   10.9931    1.8834   23.8164 C   0  0  0  0  0  0
   12.2471    1.4387   23.3534 C   0  0  0  0  0  0
   13.1199    2.3262   22.6923 C   0  0  0  0  0  0
   12.7357    3.6664   22.5067 C   0  0  0  0  0  0
   13.5744    4.5308   21.8879 F   0  0  0  0  0  0
   11.4842    4.1105   22.9707 C   0  0  0  0  0  0
    5.4608    1.6804   21.7850 C   0  0  1  0  0  0
    5.6217    0.7003   20.6592 C   0  0  0  0  0  0
    5.7990   -0.6874   20.8310 C   0  0  0  0  0  0
    5.9750   -1.5064   19.7075 C   0  0  0  0  0  0
    5.9746   -0.9361   18.4269 C   0  0  0  0  0  0
    5.7736    0.3772   18.2235 N   0  0  0  0  0  0
    5.5752    1.1479   19.3137 C   0  0  0  0  0  0
    4.0468    1.7148   22.2614 N   0  0  0  0  0  0
    3.1224    2.3625   21.2909 C   0  0  0  0  0  0
    1.9851    3.2624   21.7896 C   0  0  0  0  0  0
    2.2914    4.5177   22.3776 C   0  0  0  0  0  0
    3.5749    4.9449   22.5715 O   0  0  0  0  0  0
    1.2615    5.3590   22.8302 C   0  0  0  0  0  0
   -0.0802    4.9677   22.7056 C   0  0  0  0  0  0
   -0.4079    3.7286   22.1263 C   0  0  0  0  0  0
    0.6205    2.8644   21.6605 C   0  0  0  0  0  0
    0.2574    1.5191   21.0248 C   0  0  0  0  0  0
   -1.1940    1.0744   21.2412 C   0  0  0  0  0  0
   -2.1697    2.2335   21.0440 C   0  0  0  0  0  0
   -1.8802    3.3489   22.0480 C   0  0  0  0  0  0
    3.6265    1.0364   23.3694 C   0  0  0  0  0  0
    4.2258    0.0650   23.8211 O   0  0  0  0  0  0
    2.4343    1.4694   24.1207 C   0  0  0  0  0  0
    2.2081    2.5758   24.8952 C   0  0  0  0  0  0
    0.8967    2.4381   25.4263 C   0  0  0  0  0  0
    0.4285    1.2429   24.9642 C   0  0  0  0  0  0
    1.3583    0.6346   24.1807 O   0  0  0  0  0  0
    6.8519    3.5203   22.7834 H   0  0  0  0  0  0
    7.4633    3.2456   25.1581 H   0  0  0  0  0  0
    8.4029    1.8543   24.7910 H   0  0  0  0  0  0
    8.9302    4.5885   23.4660 H   0  0  0  0  0  0
    9.4911    4.2776   25.0761 H   0  0  0  0  0  0
   10.3573    1.1780   24.3251 H   0  0  0  0  0  0
   12.5445    0.4125   23.5052 H   0  0  0  0  0  0
   14.0809    1.9838   22.3387 H   0  0  0  0  0  0
   11.2035    5.1417   22.8151 H   0  0  0  0  0  0
    5.6726    2.6345   21.3419 H   0  0  0  0  0  0
    5.7972   -1.1416   21.8114 H   0  0  0  0  0  0
    6.1204   -2.5634   19.8334 H   0  0  0  0  0  0
    6.1231   -1.5469   17.5477 H   0  0  0  0  0  0
    5.4204    2.1937   19.0975 H   0  0  0  0  0  0
    3.6745    3.0182   20.6214 H   0  0  0  0  0  0
    2.7634    1.5872   20.6199 H   0  0  0  0  0  0
    4.2548    4.6363   21.9612 H   0  0  0  0  0  0
    1.5036    6.3092   23.2826 H   0  0  0  0  0  0
   -0.8587    5.6250   23.0645 H   0  0  0  0  0  0
    0.4488    1.6024   19.9540 H   0  0  0  0  0  0
    0.9066    0.7368   21.4155 H   0  0  0  0  0  0
   -1.4355    0.2474   20.5737 H   0  0  0  0  0  0
   -1.3026    0.6938   22.2565 H   0  0  0  0  0  0
   -2.0710    2.6246   20.0312 H   0  0  0  0  0  0
   -3.1989    1.8917   21.1474 H   0  0  0  0  0  0
   -2.1916    3.0350   23.0442 H   0  0  0  0  0  0
   -2.4731    4.2297   21.7980 H   0  0  0  0  0  0
    2.8996    3.3920   25.0488 H   0  0  0  0  0  0
    0.3671    3.1226   26.0716 H   0  0  0  0  0  0
   -0.4939    0.6956   25.0925 H   0  0  0  0  0  0
  1  2  2  0  0  0
  2  3  1  0  0  0
  2 13  1  0  0  0
  3  4  1  0  0  0
  3 40  1  0  0  0
  4  5  1  0  0  0
  4 41  1  0  0  0
  4 42  1  0  0  0
  5  6  1  0  0  0
  5 43  1  0  0  0
  5 44  1  0  0  0
  6  7  2  0  0  0
  6 12  1  0  0  0
  7  8  1  0  0  0
  7 45  1  0  0  0
  8  9  2  0  0  0
  8 46  1  0  0  0
  9 10  1  0  0  0
  9 47  1  0  0  0
 10 11  1  0  0  0
 10 12  2  0  0  0
 12 48  1  0  0  0
 13 14  1  0  0  0
 13 20  1  0  0  0
 13 49  1  0  0  0
 14 15  2  0  0  0
 14 19  1  0  0  0
 15 16  1  0  0  0
 15 50  1  0  0  0
 16 17  2  0  0  0
 16 51  1  0  0  0
 17 18  1  0  0  0
 17 52  1  0  0  0
 18 19  2  0  0  0
 19 53  1  0  0  0
 20 21  1  0  0  0
 20 33  1  0  0  0
 21 22  1  0  0  0
 21 54  1  0  0  0
 21 55  1  0  0  0
 22 23  2  0  0  0
 22 28  1  0  0  0
 23 24  1  0  0  0
 23 25  1  0  0  0
 24 56  1  0  0  0
 25 26  2  0  0  0
 25 57  1  0  0  0
 26 27  1  0  0  0
 26 58  1  0  0  0
 27 28  2  0  0  0
 27 32  1  0  0  0
 28 29  1  0  0  0
 29 30  1  0  0  0
 29 59  1  0  0  0
 29 60  1  0  0  0
 30 31  1  0  0  0
 30 61  1  0  0  0
 30 62  1  0  0  0
 31 32  1  0  0  0
 31 63  1  0  0  0
 31 64  1  0  0  0
 32 65  1  0  0  0
 32 66  1  0  0  0
 33 34  2  0  0  0
 33 35  1  0  0  0
 35 36  2  0  0  0
 35 39  1  0  0  0
 36 37  1  0  0  0
 36 67  1  0  0  0
 37 38  2  0  0  0
 37 68  1  0  0  0
 38 39  1  0  0  0
 38 69  1  0  0  0
M  END
> <s_m_entry_id>
2559

> <s_m_entry_name>
Compounds-withfrags-for-validation-docking.1881

> <s_m_Source_Path>
/home/rodolpho/data/melina/maestro/glide-dock_XP_5RGK_M-PRO_VALIDATION

> <s_m_Source_File>
glide-dock_XP_5RGK_M-PRO_VALIDATION_pv.maegz

> <i_m_Source_File_Index>
2559

> <CID>
ALP-POS-b0bc6a46-19

> <Potency>
12.0753

> <pIC50>
4.9181

> <Source>
Postera

> <smiles>
O=C(NCCc1cccc(F)c1)C(c1cccnc1)N(Cc1c(O)ccc2c1CCCC2)C(=O)c1ccco1

> <Outcome>
Inactive

> <StandardizerResult>
Clear Stereo (ID: ClearStereo)
Wedge Clean (ID: WedgeClean)
Mesomerize (ID: Mesomerize)
Tautomerize (ID: Tautomerize)
Aromatize (ID: Aromatize)
Add Explicit Hydrogens (ID: AddExplicitH)
Neutralize (ID: Neutralize)
Clean 2D (ID: Clean2D)

> <chiral flag>
0

> <version>
0

> <i_lp_mmshare_version>
41011

> <i_f3d_flags>
0

> <s_epik_input>
W0NIMl0xW0NIMl1bQ0gyXVtDSDJdYyhjMTIpYyhjKFtPSF0pW2NIXVtjSF0yKVtDSDJdTihDKD1PKWMzW2NIXVtjSF1bY0hdbzMpW0NASF0oYzRbY0hdW2NIXVtjSF1uW2NIXTQpQyg9TylbTkhdW0NIMl1bQ0gyXWM1W2NIXVtjSF1bY0hdYyhGKVtjSF01

> <s_epik_cmdline>
J2VwaWtfcHl0aG9uJywgJy1waHQnLCAnMC41JywgJy1waCcsICc3LjQnLCAnLXRuJywgJzgnLCAnLW1hJywgJzIwMCcsICctaW1hZScsICc8aW5maWxlLm1hZT4nLCAnLW9tYWUnLCAnPG91dGZpbGUubWFlPic=

> <r_lp_tautomer_probability>
1.0

> <r_epik_Ionization_Penalty>
0.0012

> <r_epik_Ionization_Penalty_Charging>
0.0

> <r_epik_Ionization_Penalty_Neutral>
0.0012

> <r_epik_State_Penalty>
0.0

> <r_epik_Charging_Adjusted_Penalty>
0.0

> <i_epik_Tot_Q>
0

> <i_epik_Tot_abs_Q>
0

> <s_lp_Force_Field>
OPLS3

> <r_lp_Energy>
63.7436

> <b_lp_Chiralities_Consistent>
1

> <s_lp_Variant>
ligprep_COVID_compounds-withfrags-smallmolecules-forvalidation.maegz:36-1

> <i_glide_original_lignum>
175

> <s_i_glide_gridfile>
glide-grid_5RGK_M-PRO_COVID

> <i_i_glide_lignum>
175

> <r_i_docking_score>
-3.57835520685257

> <r_i_glide_ligand_efficiency>
-0.0917526976116043

> <r_i_glide_ligand_efficiency_sa>
-0.311152797687915

> <r_i_glide_ligand_efficiency_ln>
-0.767300934002297

> <r_glide_XP_GScore>
-3.57835520685257

> <r_i_glide_gscore>
-3.57835520685257

> <r_i_glide_evdw>
-33.8630485534668

> <r_i_glide_ecoul>
-12.2071523666382

> <r_i_glide_energy>
-46.070200920105

> <r_i_glide_einternal>
6.31284809112549

> <r_i_glide_emodel>
-65.3163219527985

> <r_glide_XP_HBond>
-0.710708820826593

> <i_i_glide_confnum>
1

> <i_i_glide_posenum>
1

> <r_i_glide_eff_state_penalty>
0.0

> <i_glide_XP_PoseRank>
1

> <MW>
527.22

> <cLogP>
5.14

> <TPSA>
95.67

> <Rotatable Bonds>
9

> <Fraction sp3>
0.26

> <HBA>
5

> <HBD>
2

> <s_epik_Chemistry_Notes>


> <Structure ID>


> <Submission Fragments>


$$$$
ligprep_COVID_compounds-withfrags-smallmolecules-forvalidation.maegz:6
                    3D
 Structure written by MMmdl.
 57 60  0  0  1  0            999 V2000
    1.2484    1.5569   20.8198 C   0  0  0  0  0  0
    2.5389    2.3679   21.0910 C   0  0  2  0  0  0
    3.7490    1.5666   20.5527 C   0  0  0  0  0  0
    3.9519    1.4801   19.1646 C   0  0  0  0  0  0
    5.0204    0.7871   18.6167 C   0  0  0  0  0  0
    5.9221    0.1530   19.4537 C   0  0  0  0  0  0
    5.7571    0.2055   20.8354 C   0  0  0  0  0  0
    6.6991   -0.4716   21.5723 O   0  0  0  0  0  0
    4.6672    0.9075   21.4162 C   0  0  0  0  0  0
    4.5004    0.9559   22.9212 C   0  0  0  0  0  0
    5.3589    0.5440   23.7043 O   0  0  0  0  0  0
    3.2046    1.4932   23.3702 C   0  0  0  0  0  0
    2.7277    2.7377   22.6154 C   0  0  2  0  0  0
    1.5639    3.4641   23.3928 C   0  0  2  0  0  0
    0.5046    2.4922   24.0438 C   0  0  2  0  0  0
   -0.8259    3.0622   24.7153 C   0  0  2  0  0  0
   -1.2626    4.4114   24.0623 N   0  3  0  0  0  0
   -2.7797    4.5187   23.8079 C   0  0  0  0  0  0
   -0.7214    5.6916   24.7398 C   0  0  0  0  0  0
   -0.7796    3.1056   26.2667 C   0  0  0  0  0  0
   -1.9402    3.4400   26.7275 O   0  5  0  0  0  0
    0.2850    2.7553   27.0525 C   0  0  0  0  0  0
    0.2413    2.8804   28.5157 C   0  0  0  0  0  0
   -0.6050    3.7902   29.0156 N   0  0  0  0  0  0
    0.9420    2.2061   29.2699 O   0  0  0  0  0  0
    1.4785    2.2090   26.3634 C   0  0  0  0  0  0
    2.6115    2.3354   26.8382 O   0  0  0  0  0  0
    1.2131    1.4788   25.0102 C   0  0  2  0  0  0
    2.5303    0.9363   24.4088 C   0  0  0  0  0  0
    2.9581   -0.1618   25.1070 O   0  0  0  0  0  0
    0.3159    0.3947   25.2529 O   0  0  0  0  0  0
    1.0390    4.4957   22.5812 O   0  0  0  0  0  0
    2.3749    3.5651   20.3437 O   0  0  0  0  0  0
    1.2164    0.6457   21.4186 H   0  0  0  0  0  0
    1.1730    1.2532   19.7744 H   0  0  0  0  0  0
    0.3473    2.1314   21.0345 H   0  0  0  0  0  0
    3.2627    1.9649   18.4884 H   0  0  0  0  0  0
    5.1475    0.7424   17.5449 H   0  0  0  0  0  0
    6.7524   -0.3870   19.0215 H   0  0  0  0  0  0
    7.4391   -0.7785   21.0440 H   0  0  0  0  0  0
    3.5594    3.4479   22.6435 H   0  0  0  0  0  0
    2.0213    4.0113   24.2186 H   0  0  0  0  0  0
    0.1323    1.9040   23.2077 H   0  0  0  0  0  0
   -1.6150    2.3541   24.4484 H   0  0  0  0  0  0
   -3.2864    4.5305   24.7731 H   0  0  0  0  0  0
   -3.0686    3.6536   23.2101 H   0  0  0  0  0  0
   -2.9491    5.4436   23.2555 H   0  0  0  0  0  0
   -1.2815    5.8639   25.6594 H   0  0  0  0  0  0
   -0.8689    6.5068   24.0310 H   0  0  0  0  0  0
    0.3391    5.5374   24.9400 H   0  0  0  0  0  0
   -1.1940    4.3306   28.3996 H   0  0  0  0  0  0
   -0.6714    3.9228   30.0140 H   0  0  0  0  0  0
    3.7819   -0.4795   24.7298 H   0  0  0  0  0  0
   -0.5429    0.7547   25.4866 H   0  0  0  0  0  0
    1.7633    4.8950   22.0920 H   0  0  0  0  0  0
    3.2452    3.9038   20.1196 H   0  0  0  0  0  0
   -0.8314    4.4007   23.1482 H   0  0  0  0  0  0
  1  2  1  0  0  0
  1 34  1  0  0  0
  1 35  1  0  0  0
  1 36  1  0  0  0
  2  3  1  0  0  0
  2 33  1  0  0  0
  2 13  1  0  0  0
  3  4  2  0  0  0
  3  9  1  0  0  0
  4  5  1  0  0  0
  4 37  1  0  0  0
  5  6  2  0  0  0
  5 38  1  0  0  0
  6  7  1  0  0  0
  6 39  1  0  0  0
  7  8  1  0  0  0
  7  9  2  0  0  0
  8 40  1  0  0  0
  9 10  1  0  0  0
 10 11  2  0  0  0
 10 12  1  0  0  0
 12 13  1  0  0  0
 12 29  2  0  0  0
 13 14  1  0  0  0
 13 41  1  0  0  0
 14 15  1  0  0  0
 14 32  1  0  0  0
 14 42  1  0  0  0
 15 16  1  0  0  0
 15 28  1  0  0  0
 15 43  1  0  0  0
 16 17  1  0  0  0
 16 20  1  0  0  0
 16 44  1  0  0  0
 17 18  1  0  0  0
 17 19  1  0  0  0
 17 57  1  0  0  0
 18 45  1  0  0  0
 18 46  1  0  0  0
 18 47  1  0  0  0
 19 48  1  0  0  0
 19 49  1  0  0  0
 19 50  1  0  0  0
 20 21  1  0  0  0
 20 22  2  0  0  0
 22 23  1  0  0  0
 22 26  1  0  0  0
 23 24  1  0  0  0
 23 25  2  0  0  0
 24 51  1  0  0  0
 24 52  1  0  0  0
 26 27  2  0  0  0
 26 28  1  0  0  0
 28 29  1  0  0  0
 28 31  1  0  0  0
 29 30  1  0  0  0
 30 53  1  0  0  0
 31 54  1  0  0  0
 32 55  1  0  0  0
 33 56  1  0  0  0
M  CHG  2  17   1  21  -1
M  END
> <s_m_entry_id>
2561

> <s_m_entry_name>
Compounds-withfrags-for-validation-docking.1911

> <s_m_Source_Path>
/home/rodolpho/data/melina/maestro/glide-dock_XP_5RGK_M-PRO_VALIDATION

> <s_m_Source_File>
glide-dock_XP_5RGK_M-PRO_VALIDATION_pv.maegz

> <i_m_Source_File_Index>
2561

> <CID>
Oxitetracyclin

> <Potency>
15.15

> <pIC50>
4.81959

> <Source>
https://doi.org/10.1101/2020.03.23.004580

> <smiles>
C(C1(C2=C(C(=C(C(O[H])=C2C(O[H])=C2C1(C(C1(C(N(C([H])([H])[H])C([H])([H])[H])([H])C(=O)C(=C(N([H])[H])O[H])C(=O)C1(C2=O)O[H])[H])(O[H])[H])[H])[H])[H])[H])O[H])([H])([H])[H]

> <Outcome>
Inactive

> <StandardizerResult>
Clear Stereo (ID: ClearStereo)
Wedge Clean (ID: WedgeClean)
Mesomerize (ID: Mesomerize)
Tautomerize (ID: Tautomerize)
Aromatize (ID: Aromatize)
Add Explicit Hydrogens (ID: AddExplicitH)
Neutralize (ID: Neutralize)
Clean 2D (ID: Clean2D)

> <chiral flag>
0

> <version>
0

> <i_lp_mmshare_version>
41011

> <i_f3d_flags>
0

> <s_epik_input>
W09IXWMxW2NIXVtjSF1bY0hdYyhbQ0BdMihbQ0gzXSlbT0hdKWMxQyg9TylDKD1DM1tPSF0pW0NAQEhdMltDQEBIXShbT0hdKVtDQEBIXShbQ0BAXTM0W09IXSlbQ0BIXShOKFtDSDNdKVtDSDNdKUMoPU8pW0NASF0oQzQ9TylDKD1PKVtOSDJd

> <s_epik_cmdline>
J2VwaWtfcHl0aG9uJywgJy1waHQnLCAnMC41JywgJy1waCcsICc3LjQnLCAnLXRuJywgJzgnLCAnLW1hJywgJzIwMCcsICctaW1hZScsICc8aW5maWxlLm1hZT4nLCAnLW9tYWUnLCAnPG91dGZpbGUubWFlPic=

> <r_epik_Ionization_Penalty>
0.6144

> <r_epik_Ionization_Penalty_Charging>
0.5087

> <r_epik_Ionization_Penalty_Neutral>
0.1057

> <r_epik_State_Penalty>
0.5157

> <r_epik_Charging_Adjusted_Penalty>
1.02439

> <i_epik_Tot_Q>
0

> <i_epik_Tot_abs_Q>
2

> <s_lp_Force_Field>
OPLS3

> <r_lp_Energy>
62.4079

> <b_lp_Chiralities_Consistent>
1

> <s_lp_Variant>
ligprep_COVID_compounds-withfrags-smallmolecules-forvalidation.maegz:6-44

> <i_glide_original_lignum>
96

> <s_i_glide_gridfile>
glide-grid_5RGK_M-PRO_COVID

> <i_i_glide_lignum>
96

> <r_i_docking_score>
-3.57707589358024

> <r_i_glide_ligand_efficiency>
-0.108396239199401

> <r_i_glide_ligand_efficiency_sa>
-0.347684658069291

> <r_i_glide_ligand_efficiency_ln>
-0.795523157624496

> <r_glide_XP_GScore>
-4.09278289358024

> <r_i_glide_gscore>
-4.09278289358024

> <r_i_glide_evdw>
-16.9181308746338

> <r_i_glide_ecoul>
-8.26099491119385

> <r_i_glide_energy>
-25.1791257858276

> <r_i_glide_einternal>
6.13319301605225

> <r_i_glide_emodel>
-27.252785731573

> <r_glide_XP_HBond>
-1.38224262878426

> <i_i_glide_confnum>
1

> <i_i_glide_posenum>
15

> <r_i_glide_eff_state_penalty>
0.515707

> <i_glide_XP_PoseRank>
1

> <r_lp_tautomer_probability>


> <s_epik_Chemistry_Notes>


> <MW>


> <cLogP>


> <TPSA>


> <Rotatable Bonds>


> <Fraction sp3>


> <HBA>


> <HBD>


> <Structure ID>


> <Submission Fragments>


$$$$
ligprep_COVID_compounds-withfrags-smallmolecules-forvalidation.maegz:8
                    3D
 Structure written by MMmdl.
 42 45  0  0  1  0            999 V2000
    2.4898    2.8584   20.0672 C   0  0  0  0  0  0
    3.5631    1.8377   20.4004 C   0  0  0  0  0  0
    4.3550    1.3056   19.3767 C   0  0  0  0  0  0
    5.3456    0.3595   19.6697 C   0  0  0  0  0  0
    6.2258   -0.2415   18.5729 C   0  0  0  0  0  0
    6.0058    0.3187   17.3817 F   0  0  0  0  0  0
    7.5127   -0.0684   18.8785 F   0  0  0  0  0  0
    5.9852   -1.5490   18.4640 F   0  0  0  0  0  0
    5.6030   -0.0963   20.9274 N   0  0  0  0  0  0
    4.8418    0.4176   21.9033 C   0  0  0  0  0  0
    3.8169    1.3767   21.7080 C   0  0  0  0  0  0
    3.3100    1.5969   23.0197 C   0  0  0  0  0  0
    2.3083    2.4615   23.3528 N   0  0  0  0  0  0
    3.9484    0.8753   23.9010 N   0  0  0  0  0  0
    4.8895    0.1282   23.2684 N   0  0  0  0  0  0
    5.7319   -0.7785   23.9917 C   0  0  0  0  0  0
    5.2991   -1.3716   24.9831 O   0  0  0  0  0  0
    7.1982   -0.9784   23.5015 C   0  0  1  0  0  0
    8.1233    0.1004   24.1102 C   0  0  0  0  0  0
    8.5214   -0.2463   25.5562 C   0  0  0  0  0  0
    9.1512   -1.5252   25.6727 O   0  0  0  0  0  0
    8.6251   -2.5577   24.9163 C   0  0  0  0  0  0
    9.0994   -3.8288   25.2445 C   0  0  0  0  0  0
    8.6506   -4.9452   24.5429 C   0  0  0  0  0  0
    7.7304   -4.7916   23.5082 C   0  0  0  0  0  0
    7.1714   -6.1726   22.6371 Cl  0  0  0  0  0  0
    7.2634   -3.5202   23.1751 C   0  0  0  0  0  0
    7.6996   -2.3807   23.8657 C   0  0  0  0  0  0
    2.6799    3.7918   20.5975 H   0  0  0  0  0  0
    1.5109    2.4862   20.3708 H   0  0  0  0  0  0
    2.4491    3.0795   18.9999 H   0  0  0  0  0  0
    4.1960    1.6285   18.3580 H   0  0  0  0  0  0
    2.1114    3.2795   22.7948 H   0  0  0  0  0  0
    1.8361    2.3975   24.2431 H   0  0  0  0  0  0
    7.1722   -0.8921   22.4143 H   0  0  0  0  0  0
    9.0293    0.1705   23.5068 H   0  0  0  0  0  0
    7.6717    1.0931   24.0723 H   0  0  0  0  0  0
    9.2032    0.5088   25.9484 H   0  0  0  0  0  0
    7.6432   -0.2296   26.2036 H   0  0  0  0  0  0
    9.8143   -3.9520   26.0450 H   0  0  0  0  0  0
    9.0181   -5.9271   24.8031 H   0  0  0  0  0  0
    6.5522   -3.4134   22.3687 H   0  0  0  0  0  0
  1  2  1  0  0  0
  1 29  1  0  0  0
  1 30  1  0  0  0
  1 31  1  0  0  0
  2  3  2  0  0  0
  2 11  1  0  0  0
  3  4  1  0  0  0
  3 32  1  0  0  0
  4  5  1  0  0  0
  4  9  2  0  0  0
  5  6  1  0  0  0
  5  7  1  0  0  0
  5  8  1  0  0  0
  9 10  1  0  0  0
 10 11  2  0  0  0
 10 15  1  0  0  0
 11 12  1  0  0  0
 12 13  1  0  0  0
 12 14  2  0  0  0
 13 33  1  0  0  0
 13 34  1  0  0  0
 14 15  1  0  0  0
 15 16  1  0  0  0
 16 17  2  0  0  0
 16 18  1  0  0  0
 18 19  1  0  0  0
 18 28  1  0  0  0
 18 35  1  0  0  0
 19 20  1  0  0  0
 19 36  1  0  0  0
 19 37  1  0  0  0
 20 21  1  0  0  0
 20 38  1  0  0  0
 20 39  1  0  0  0
 21 22  1  0  0  0
 22 23  2  0  0  0
 22 28  1  0  0  0
 23 24  1  0  0  0
 23 40  1  0  0  0
 24 25  2  0  0  0
 24 41  1  0  0  0
 25 26  1  0  0  0
 25 27  1  0  0  0
 27 28  2  0  0  0
 27 42  1  0  0  0
M  END
> <s_m_entry_id>
2575

> <s_m_entry_name>
Compounds-withfrags-for-validation-docking.1909

> <s_m_Source_Path>
/home/rodolpho/data/melina/maestro/glide-dock_XP_5RGK_M-PRO_VALIDATION

> <s_m_Source_File>
glide-dock_XP_5RGK_M-PRO_VALIDATION_pv.maegz

> <i_m_Source_File_Index>
2575

> <CID>
ALP-POS-6495d03e-6

> <Potency>
99.5

> <pIC50>
4.00218

> <Source>
Postera

> <smiles>
Cc1cc(C(F)(F)F)nc2c1c(N)nn2C(=O)C1CCOc2ccc(Cl)cc21

> <Outcome>
Inactive

> <StandardizerResult>
Clear Stereo (ID: ClearStereo)
Wedge Clean (ID: WedgeClean)
Mesomerize (ID: Mesomerize)
Tautomerize (ID: Tautomerize)
Aromatize (ID: Aromatize)
Add Explicit Hydrogens (ID: AddExplicitH)
Neutralize (ID: Neutralize)
Clean 2D (ID: Clean2D)

> <chiral flag>
0

> <version>
0

> <i_lp_mmshare_version>
41011

> <i_f3d_flags>
0

> <s_epik_input>
RkMoRikoRiljKG4xKVtjSF1jKFtDSDNdKWMoYzEyKWMoW05IMl0pbm4yQyg9TylbQ0BASF0oW0NIMl1bQ0gyXU8zKWMoYzM0KVtjSF1jKENsKVtjSF1bY0hdNA==

> <s_epik_cmdline>
J2VwaWtfcHl0aG9uJywgJy1waHQnLCAnMC41JywgJy1waCcsICc3LjQnLCAnLXRuJywgJzgnLCAnLW1hJywgJzIwMCcsICctaW1hZScsICc8aW5maWxlLm1hZT4nLCAnLW9tYWUnLCAnPG91dGZpbGUubWFlPic=

> <r_lp_tautomer_probability>
1.0

> <r_epik_Ionization_Penalty>
0.0017

> <r_epik_Ionization_Penalty_Charging>
0.0

> <r_epik_Ionization_Penalty_Neutral>
0.0017

> <r_epik_State_Penalty>
0.0

> <r_epik_Charging_Adjusted_Penalty>
0.0

> <i_epik_Tot_Q>
0

> <i_epik_Tot_abs_Q>
0

> <s_lp_Force_Field>
OPLS3

> <r_lp_Energy>
34.6171

> <b_lp_Chiralities_Consistent>
1

> <s_lp_Variant>
ligprep_COVID_compounds-withfrags-smallmolecules-forvalidation.maegz:8-2

> <i_glide_original_lignum>
110

> <s_i_glide_gridfile>
glide-grid_5RGK_M-PRO_COVID

> <i_i_glide_lignum>
110

> <r_i_docking_score>
-3.5670091467267

> <r_i_glide_ligand_efficiency>
-0.127393183811668

> <r_i_glide_ligand_efficiency_sa>
-0.386840736624962

> <r_i_glide_ligand_efficiency_ln>
-0.823370443003957

> <r_glide_XP_GScore>
-3.5670091467267

> <r_i_glide_gscore>
-3.5670091467267

> <r_i_glide_evdw>
-32.3915977478027

> <r_i_glide_ecoul>
-6.37727689743042

> <r_i_glide_energy>
-38.7688746452332

> <r_i_glide_einternal>
2.27298307418823

> <r_i_glide_emodel>
-53.6583810480961

> <r_glide_XP_HBond>
-0.358075484189329

> <i_i_glide_confnum>
1

> <i_i_glide_posenum>
1

> <r_i_glide_eff_state_penalty>
0.0

> <i_glide_XP_PoseRank>
1

> <MW>
410.08

> <cLogP>
4.2

> <TPSA>
83.03

> <Rotatable Bonds>
1

> <Fraction sp3>
0.28

> <HBA>
6

> <HBD>
1

> <s_epik_Chemistry_Notes>


> <Structure ID>


> <Submission Fragments>


$$$$
ligprep_COVID_compounds-withfrags-smallmolecules-forvalidation.maegz:9
                    3D
 Structure written by MMmdl.
 37 39  0  0  1  0            999 V2000
    2.5000    2.8514   20.2178 C   0  0  0  0  0  0
    3.5799    1.8204   20.4934 C   0  0  0  0  0  0
    4.3798    1.3576   19.4424 C   0  0  0  0  0  0
    5.3807    0.4070   19.6822 C   0  0  0  0  0  0
    6.2726   -0.1157   18.5552 C   0  0  0  0  0  0
    5.9687    0.4266   17.3742 F   0  0  0  0  0  0
    7.5497    0.1639   18.8205 F   0  0  0  0  0  0
    6.1395   -1.4388   18.4477 F   0  0  0  0  0  0
    5.6401   -0.1194   20.9114 N   0  0  0  0  0  0
    4.8704    0.3278   21.9131 C   0  0  0  0  0  0
    3.8350    1.2849   21.7721 C   0  0  0  0  0  0
    3.3233    1.4218   23.0939 C   0  0  0  0  0  0
    2.3127    2.2556   23.4752 N   0  0  0  0  0  0
    3.9687    0.6573   23.9333 N   0  0  0  0  0  0
    4.9219   -0.0363   23.2594 N   0  0  0  0  0  0
    5.7808   -0.9594   23.9353 C   0  0  0  0  0  0
    5.5091   -1.3575   25.0703 O   0  0  0  0  0  0
    7.0511   -1.4311   23.1909 C   0  0  0  0  0  0
    7.5428   -2.8084   23.6289 C   0  0  0  0  0  0
    7.4893   -3.8912   22.7438 C   0  0  0  0  0  0
    7.9558   -5.1456   23.1381 C   0  0  0  0  0  0
    8.4826   -5.3242   24.4173 C   0  0  0  0  0  0
    8.5456   -4.2474   25.3027 C   0  0  0  0  0  0
    9.2020   -4.4675   26.8838 Cl  0  0  0  0  0  0
    8.0789   -2.9922   24.9087 C   0  0  0  0  0  0
    1.5226    2.4560   20.4959 H   0  0  0  0  0  0
    2.4612    3.1358   19.1655 H   0  0  0  0  0  0
    2.6827    3.7537   20.8021 H   0  0  0  0  0  0
    4.2205    1.7385   18.4440 H   0  0  0  0  0  0
    2.1147    3.1072   22.9704 H   0  0  0  0  0  0
    1.8440    2.1370   24.3618 H   0  0  0  0  0  0
    6.8462   -1.4437   22.1190 H   0  0  0  0  0  0
    7.8450   -0.6999   23.3511 H   0  0  0  0  0  0
    7.0890   -3.7617   21.7486 H   0  0  0  0  0  0
    7.9118   -5.9784   22.4519 H   0  0  0  0  0  0
    8.8441   -6.2967   24.7183 H   0  0  0  0  0  0
    8.1357   -2.1604   25.5964 H   0  0  0  0  0  0
  1  2  1  0  0  0
  1 26  1  0  0  0
  1 27  1  0  0  0
  1 28  1  0  0  0
  2  3  2  0  0  0
  2 11  1  0  0  0
  3  4  1  0  0  0
  3 29  1  0  0  0
  4  5  1  0  0  0
  4  9  2  0  0  0
  5  6  1  0  0  0
  5  7  1  0  0  0
  5  8  1  0  0  0
  9 10  1  0  0  0
 10 11  2  0  0  0
 10 15  1  0  0  0
 11 12  1  0  0  0
 12 13  1  0  0  0
 12 14  2  0  0  0
 13 30  1  0  0  0
 13 31  1  0  0  0
 14 15  1  0  0  0
 15 16  1  0  0  0
 16 17  2  0  0  0
 16 18  1  0  0  0
 18 19  1  0  0  0
 18 32  1  0  0  0
 18 33  1  0  0  0
 19 20  2  0  0  0
 19 25  1  0  0  0
 20 21  1  0  0  0
 20 34  1  0  0  0
 21 22  2  0  0  0
 21 35  1  0  0  0
 22 23  1  0  0  0
 22 36  1  0  0  0
 23 24  1  0  0  0
 23 25  2  0  0  0
 25 37  1  0  0  0
M  END
> <s_m_entry_id>
2586

> <s_m_entry_name>
Compounds-withfrags-for-validation-docking.1908

> <s_m_Source_Path>
/home/rodolpho/data/melina/maestro/glide-dock_XP_5RGK_M-PRO_VALIDATION

> <s_m_Source_File>
glide-dock_XP_5RGK_M-PRO_VALIDATION_pv.maegz

> <i_m_Source_File_Index>
2586

> <CID>
ALP-POS-79636100-3

> <Potency>
99.5

> <pIC50>
4.00218

> <Source>
Postera

> <smiles>
Cc1cc(C(F)(F)F)nc2c1c(N)nn2C(=O)Cc1cccc(Cl)c1

> <Outcome>
Inactive

> <StandardizerResult>
Clear Stereo (ID: ClearStereo)
Wedge Clean (ID: WedgeClean)
Mesomerize (ID: Mesomerize)
Tautomerize (ID: Tautomerize)
Aromatize (ID: Aromatize)
Add Explicit Hydrogens (ID: AddExplicitH)
Neutralize (ID: Neutralize)
Clean 2D (ID: Clean2D)

> <chiral flag>
0

> <version>
0

> <i_lp_mmshare_version>
41011

> <i_f3d_flags>
0

> <s_epik_input>
RkMoRikoRiljKG4xKVtjSF1jKFtDSDNdKWMoYzEyKWMoW05IMl0pbm4yQyg9TylbQ0gyXWMzW2NIXVtjSF1bY0hdYyhDbClbY0hdMw==

> <s_epik_cmdline>
J2VwaWtfcHl0aG9uJywgJy1waHQnLCAnMC41JywgJy1waCcsICc3LjQnLCAnLXRuJywgJzgnLCAnLW1hJywgJzIwMCcsICctaW1hZScsICc8aW5maWxlLm1hZT4nLCAnLW9tYWUnLCAnPG91dGZpbGUubWFlPic=

> <r_lp_tautomer_probability>
1.0

> <r_epik_Ionization_Penalty>
0.0016

> <r_epik_Ionization_Penalty_Charging>
0.0

> <r_epik_Ionization_Penalty_Neutral>
0.0016

> <r_epik_State_Penalty>
0.0

> <r_epik_Charging_Adjusted_Penalty>
0.0

> <i_epik_Tot_Q>
0

> <i_epik_Tot_abs_Q>
0

> <s_lp_Force_Field>
OPLS3

> <r_lp_Energy>
26.2075

> <b_lp_Chiralities_Consistent>
1

> <s_lp_Variant>
ligprep_COVID_compounds-withfrags-smallmolecules-forvalidation.maegz:9-1

> <i_glide_original_lignum>
111

> <s_i_glide_gridfile>
glide-grid_5RGK_M-PRO_COVID

> <i_i_glide_lignum>
111

> <r_i_docking_score>
-3.5564431874489

> <r_i_glide_ligand_efficiency>
-0.142257727497956

> <r_i_glide_ligand_efficiency_sa>
-0.415964118155563

> <r_i_glide_ligand_efficiency_ln>
-0.8429836134274

> <r_glide_XP_GScore>
-3.5564431874489

> <r_i_glide_gscore>
-3.5564431874489

> <r_i_glide_evdw>
-31.0545787811279

> <r_i_glide_ecoul>
-3.60032629966736

> <r_i_glide_energy>
-34.6549050807953

> <r_i_glide_einternal>
1.11402106285095

> <r_i_glide_emodel>
-47.3097974207876

> <r_glide_XP_HBond>
-0.380991019226465

> <i_i_glide_confnum>
1

> <i_i_glide_posenum>
1

> <r_i_glide_eff_state_penalty>
0.0

> <i_glide_XP_PoseRank>
1

> <MW>
368.07

> <cLogP>
3.88

> <TPSA>
73.8

> <Rotatable Bonds>
2

> <Fraction sp3>
0.19

> <HBA>
5

> <HBD>
1

> <s_epik_Chemistry_Notes>


> <Structure ID>


> <Submission Fragments>


$$$$
ligprep_COVID_compounds-withfrags-smallmolecules-forvalidation.maegz:45
                    3D
 Structure written by MMmdl.
 66 70  0  0  1  0            999 V2000
    9.3763   -5.6863   26.3990 C   0  0  0  0  0  0
    8.4953   -4.5305   25.9407 C   0  0  0  0  0  0
    7.7639   -4.0227   27.0582 O   0  0  0  0  0  0
    6.9222   -2.8805   26.8547 C   0  0  1  0  0  0
    7.6108   -1.6636   26.2261 C   0  0  0  0  0  0
    6.7760   -1.8716   24.9748 C   0  0  2  0  0  0
    5.9605   -2.9459   25.6625 C   0  0  0  0  0  0
    7.4406   -2.2584   23.6783 C   0  0  0  0  0  0
    6.4922   -1.0681   23.7138 C   0  0  2  0  0  0
    6.9732    0.2816   23.4156 N   0  0  0  0  0  0
    8.1247    0.8121   23.9388 C   0  0  0  0  0  0
    9.0285    0.1323   24.4244 O   0  0  0  0  0  0
    8.3538    2.2811   23.9468 C   0  0  0  0  0  0
    7.5290    3.3515   24.1737 C   0  0  0  0  0  0
    8.3236    4.5221   24.0272 C   0  0  0  0  0  0
    9.5909    4.0872   23.7759 C   0  0  0  0  0  0
    9.6342    2.7284   23.7710 O   0  0  0  0  0  0
    6.1541    1.0542   22.4192 C   0  0  2  0  0  0
    4.7351    1.4281   22.9275 C   0  0  0  0  0  0
    4.0731    0.6547   23.6207 O   0  0  0  0  0  0
    4.2685    2.6358   22.5705 N   0  0  0  0  0  0
    2.9365    3.1572   22.8503 C   0  0  0  0  0  0
    2.9962    4.6118   23.3474 C   0  0  0  0  0  0
    3.8340    4.8074   24.6020 C   0  0  0  0  0  0
    4.8832    5.7514   24.6118 C   0  0  0  0  0  0
    5.6542    5.9417   25.7755 C   0  0  0  0  0  0
    5.3902    5.1794   26.9296 C   0  0  0  0  0  0
    4.3446    4.2364   26.9240 C   0  0  0  0  0  0
    4.0937    3.4952   28.0292 F   0  0  0  0  0  0
    3.5645    4.0565   25.7665 C   0  0  0  0  0  0
    5.9569    0.4117   21.0483 C   0  0  0  0  0  0
    6.2098   -0.9315   20.6724 C   0  0  0  0  0  0
    5.9756   -1.3637   19.3565 C   0  0  0  0  0  0
    5.5750   -0.4372   18.3923 C   0  0  0  0  0  0
    5.3324    0.8435   18.6944 N   0  0  0  0  0  0
    5.4992    1.2193   19.9775 C   0  0  0  0  0  0
    9.9628   -6.0894   25.5734 H   0  0  0  0  0  0
    8.7739   -6.4991   26.8027 H   0  0  0  0  0  0
   10.0700   -5.3638   27.1744 H   0  0  0  0  0  0
    9.1376   -3.7716   25.4977 H   0  0  0  0  0  0
    7.8288   -4.8927   25.1593 H   0  0  0  0  0  0
    6.3944   -2.6202   27.7705 H   0  0  0  0  0  0
    7.3670   -0.7451   26.7605 H   0  0  0  0  0  0
    8.6901   -1.7520   26.1172 H   0  0  0  0  0  0
    5.8974   -3.9070   25.1546 H   0  0  0  0  0  0
    4.9591   -2.6127   25.9343 H   0  0  0  0  0  0
    8.5109   -2.1042   23.5960 H   0  0  0  0  0  0
    7.0814   -3.1537   23.1736 H   0  0  0  0  0  0
    5.5163   -1.2983   23.3050 H   0  0  0  0  0  0
    6.4726    3.3031   24.3886 H   0  0  0  0  0  0
    8.0069    5.5521   24.0960 H   0  0  0  0  0  0
   10.5330    4.5836   23.5966 H   0  0  0  0  0  0
    6.6450    1.9963   22.1844 H   0  0  0  0  0  0
    4.8821    3.2644   22.0389 H   0  0  0  0  0  0
    2.3565    3.1122   21.9284 H   0  0  0  0  0  0
    2.4065    2.5371   23.5742 H   0  0  0  0  0  0
    3.3916    5.2432   22.5497 H   0  0  0  0  0  0
    1.9874    4.9727   23.5489 H   0  0  0  0  0  0
    5.1053    6.3256   23.7234 H   0  0  0  0  0  0
    6.4593    6.6623   25.7781 H   0  0  0  0  0  0
    5.9892    5.3145   27.8175 H   0  0  0  0  0  0
    2.7616    3.3347   25.7777 H   0  0  0  0  0  0
    6.5779   -1.6738   21.3526 H   0  0  0  0  0  0
    6.1138   -2.3974   19.0842 H   0  0  0  0  0  0
    5.4102   -0.7380   17.3700 H   0  0  0  0  0  0
    5.2556    2.2411   20.1618 H   0  0  0  0  0  0
  1  2  1  0  0  0
  1 37  1  0  0  0
  1 38  1  0  0  0
  1 39  1  0  0  0
  2  3  1  0  0  0
  2 40  1  0  0  0
  2 41  1  0  0  0
  3  4  1  0  0  0
  4  5  1  0  0  0
  4  7  1  0  0  0
  4 42  1  0  0  0
  5  6  1  0  0  0
  5 43  1  0  0  0
  5 44  1  0  0  0
  6  7  1  0  0  0
  6  8  1  0  0  0
  6  9  1  0  0  0
  7 45  1  0  0  0
  7 46  1  0  0  0
  8  9  1  0  0  0
  8 47  1  0  0  0
  8 48  1  0  0  0
  9 10  1  0  0  0
  9 49  1  0  0  0
 10 11  1  0  0  0
 10 18  1  0  0  0
 11 12  2  0  0  0
 11 13  1  0  0  0
 13 14  2  0  0  0
 13 17  1  0  0  0
 14 15  1  0  0  0
 14 50  1  0  0  0
 15 16  2  0  0  0
 15 51  1  0  0  0
 16 17  1  0  0  0
 16 52  1  0  0  0
 18 19  1  0  0  0
 18 31  1  0  0  0
 18 53  1  0  0  0
 19 20  2  0  0  0
 19 21  1  0  0  0
 21 22  1  0  0  0
 21 54  1  0  0  0
 22 23  1  0  0  0
 22 55  1  0  0  0
 22 56  1  0  0  0
 23 24  1  0  0  0
 23 57  1  0  0  0
 23 58  1  0  0  0
 24 25  2  0  0  0
 24 30  1  0  0  0
 25 26  1  0  0  0
 25 59  1  0  0  0
 26 27  2  0  0  0
 26 60  1  0  0  0
 27 28  1  0  0  0
 27 61  1  0  0  0
 28 29  1  0  0  0
 28 30  2  0  0  0
 30 62  1  0  0  0
 31 32  2  0  0  0
 31 36  1  0  0  0
 32 33  1  0  0  0
 32 63  1  0  0  0
 33 34  2  0  0  0
 33 64  1  0  0  0
 34 35  1  0  0  0
 34 65  1  0  0  0
 35 36  2  0  0  0
 36 66  1  0  0  0
M  END
> <s_m_entry_id>
2587

> <s_m_entry_name>
Compounds-withfrags-for-validation-docking.1872

> <s_m_Source_Path>
/home/rodolpho/data/melina/maestro/glide-dock_XP_5RGK_M-PRO_VALIDATION

> <s_m_Source_File>
glide-dock_XP_5RGK_M-PRO_VALIDATION_pv.maegz

> <i_m_Source_File_Index>
2587

> <CID>
ALP-POS-b0bc6a46-4

> <Potency>
99.5

> <pIC50>
4.00218

> <Source>
Postera

> <smiles>
CCOC1CC2(C1)CC2N(C(=O)c1ccco1)C(C(=O)NCCc1cccc(F)c1)c1cccnc1

> <Outcome>
Inactive

> <StandardizerResult>
Clear Stereo (ID: ClearStereo)
Wedge Clean (ID: WedgeClean)
Mesomerize (ID: Mesomerize)
Tautomerize (ID: Tautomerize)
Aromatize (ID: Aromatize)
Add Explicit Hydrogens (ID: AddExplicitH)
Neutralize (ID: Neutralize)
Clean 2D (ID: Clean2D)

> <chiral flag>
0

> <version>
0

> <i_lp_mmshare_version>
41011

> <i_f3d_flags>
0

> <s_epik_input>
W0NIM11bQ0gyXU9bQ0BIXShbQ0gyXTEpW0NIMl1bQ0BAXTEyW0NIMl1bQ0BASF0yTihDKD1PKWMzW2NIXVtjSF1bY0hdbzMpW0NAQEhdKGM0W2NIXVtjSF1bY0hdbltjSF00KUMoPU8pW05IXVtDSDJdW0NIMl1jNVtjSF1bY0hdW2NIXWMoRilbY0hdNQ==

> <s_epik_cmdline>
J2VwaWtfcHl0aG9uJywgJy1waHQnLCAnMC41JywgJy1waCcsICc3LjQnLCAnLXRuJywgJzgnLCAnLW1hJywgJzIwMCcsICctaW1hZScsICc8aW5maWxlLm1hZT4nLCAnLW9tYWUnLCAnPG91dGZpbGUubWFlPic=

> <r_lp_tautomer_probability>
1.0

> <r_epik_Ionization_Penalty>
8.0E-4

> <r_epik_Ionization_Penalty_Charging>
0.0

> <r_epik_Ionization_Penalty_Neutral>
8.0E-4

> <r_epik_State_Penalty>
0.0

> <r_epik_Charging_Adjusted_Penalty>
0.0

> <i_epik_Tot_Q>
0

> <i_epik_Tot_abs_Q>
0

> <s_lp_Force_Field>
OPLS3

> <r_lp_Energy>
64.1444

> <b_lp_Chiralities_Consistent>
1

> <s_lp_Variant>
ligprep_COVID_compounds-withfrags-smallmolecules-forvalidation.maegz:45-8

> <i_glide_original_lignum>
202

> <s_i_glide_gridfile>
glide-grid_5RGK_M-PRO_COVID

> <i_i_glide_lignum>
202

> <r_i_docking_score>
-3.55513133545687

> <r_i_glide_ligand_efficiency>
-0.0987536482071353

> <r_i_glide_ligand_efficiency_sa>
-0.326077361553393

> <r_i_glide_ligand_efficiency_ln>
-0.775633608847783

> <r_glide_XP_GScore>
-3.55513133545687

> <r_i_glide_gscore>
-3.55513133545687

> <r_i_glide_evdw>
-34.4398765563965

> <r_i_glide_ecoul>
-11.0437059402466

> <r_i_glide_energy>
-45.4835824966431

> <r_i_glide_einternal>
12.6995878219604

> <r_i_glide_emodel>
-56.3345120760514

> <r_glide_XP_HBond>
-0.787344316516385

> <i_i_glide_confnum>
3

> <i_i_glide_posenum>
12

> <r_i_glide_eff_state_penalty>
0.0

> <i_glide_XP_PoseRank>
1

> <MW>
491.22

> <cLogP>
4.31

> <TPSA>
84.67

> <Rotatable Bonds>
10

> <Fraction sp3>
0.39

> <HBA>
5

> <HBD>
1

> <s_epik_Chemistry_Notes>


> <Structure ID>


> <Submission Fragments>


$$$$
ligprep_COVID_compounds-withfrags-smallmolecules-forvalidation.maegz:55
                    3D
 Structure written by MMmdl.
 42 45  0  0  1  0            999 V2000
    9.4212   -0.6869   25.9401 C   0  0  0  0  0  0
    8.6843    0.2518   25.0014 C   0  0  0  0  0  0
    8.9022    1.6331   25.0891 C   0  0  0  0  0  0
    8.2276    2.5128   24.2289 C   0  0  0  0  0  0
    8.4479    4.0247   24.3019 C   0  0  0  0  0  0
    7.5122    4.7065   23.6378 F   0  0  0  0  0  0
    8.4248    4.4243   25.5744 F   0  0  0  0  0  0
    9.6344    4.3375   23.7783 F   0  0  0  0  0  0
    7.3398    2.1065   23.2767 N   0  0  0  0  0  0
    7.1475    0.7875   23.2111 C   0  0  0  0  0  0
    6.3150    0.1021   22.3546 N   0  0  0  0  0  0
    6.3739   -1.2249   22.5705 N   0  0  0  0  0  0
    7.2289   -1.4298   23.5524 C   0  0  0  0  0  0
    7.5922   -2.6569   24.0913 N   0  0  0  0  0  0
    8.8411   -3.1699   24.1664 C   0  0  0  0  0  0
    9.8701   -2.5300   23.9348 O   0  0  0  0  0  0
    8.9323   -4.6332   24.5751 C   0  0  1  0  0  0
    9.9203   -4.8012   25.7323 C   0  0  0  0  0  0
    9.2433   -4.4225   27.0537 C   0  0  0  0  0  0
    8.1285   -5.2725   27.3162 O   0  0  0  0  0  0
    7.2319   -5.4521   26.2861 C   0  0  0  0  0  0
    5.9581   -5.9693   26.5950 C   0  0  0  0  0  0
    5.0075   -6.1822   25.5779 C   0  0  0  0  0  0
    5.3289   -5.8841   24.2402 C   0  0  0  0  0  0
    4.1618   -6.1455   22.9903 Cl  0  0  0  0  0  0
    6.6030   -5.3778   23.9199 C   0  0  0  0  0  0
    7.5573   -5.1652   24.9361 C   0  0  0  0  0  0
    7.7704   -0.1884   24.0222 C   0  0  0  0  0  0
    8.7092   -1.2571   26.5372 H   0  0  0  0  0  0
   10.0802   -0.1504   26.6239 H   0  0  0  0  0  0
   10.0287   -1.3900   25.3699 H   0  0  0  0  0  0
    9.5949    2.0168   25.8240 H   0  0  0  0  0  0
    5.7133    0.4804   21.6375 H   0  0  0  0  0  0
    6.8323   -3.2312   24.4245 H   0  0  0  0  0  0
    9.2881   -5.1840   23.7044 H   0  0  0  0  0  0
   10.2483   -5.8391   25.7890 H   0  0  0  0  0  0
   10.8130   -4.1995   25.5616 H   0  0  0  0  0  0
    9.9519   -4.5133   27.8769 H   0  0  0  0  0  0
    8.9139   -3.3836   27.0342 H   0  0  0  0  0  0
    5.7056   -6.2012   27.6192 H   0  0  0  0  0  0
    4.0322   -6.5749   25.8249 H   0  0  0  0  0  0
    6.8463   -5.1564   22.8912 H   0  0  0  0  0  0
  1 29  1  0  0  0
  1 30  1  0  0  0
  1 31  1  0  0  0
  1  2  1  0  0  0
  2  3  2  0  0  0
  2 28  1  0  0  0
  3  4  1  0  0  0
  3 32  1  0  0  0
  4  9  2  0  0  0
  4  5  1  0  0  0
  5  6  1  0  0  0
  5  7  1  0  0  0
  5  8  1  0  0  0
  9 10  1  0  0  0
 10 11  1  0  0  0
 10 28  2  0  0  0
 11 12  1  0  0  0
 11 33  1  0  0  0
 12 13  2  0  0  0
 13 28  1  0  0  0
 13 14  1  0  0  0
 14 15  1  0  0  0
 14 34  1  0  0  0
 15 16  2  0  0  0
 15 17  1  0  0  0
 17 18  1  0  0  0
 17 27  1  0  0  0
 17 35  1  0  0  0
 18 19  1  0  0  0
 18 36  1  0  0  0
 18 37  1  0  0  0
 19 20  1  0  0  0
 19 38  1  0  0  0
 19 39  1  0  0  0
 20 21  1  0  0  0
 21 22  2  0  0  0
 21 27  1  0  0  0
 22 23  1  0  0  0
 22 40  1  0  0  0
 23 24  2  0  0  0
 23 41  1  0  0  0
 24 25  1  0  0  0
 24 26  1  0  0  0
 26 27  2  0  0  0
 26 42  1  0  0  0
M  END
> <s_m_entry_id>
2618

> <s_m_entry_name>
Compounds-withfrags-for-validation-docking.1862

> <s_m_Source_Path>
/home/rodolpho/data/melina/maestro/glide-dock_XP_5RGK_M-PRO_VALIDATION

> <s_m_Source_File>
glide-dock_XP_5RGK_M-PRO_VALIDATION_pv.maegz

> <i_m_Source_File_Index>
2618

> <CID>
JAG-UCB-52b62a6f-19

> <Potency>
25.9776

> <pIC50>
4.5854

> <Source>
Postera

> <smiles>
Cc1cc(C(F)(F)F)nc2n[nH]c(NC(=O)C3CCOc4ccc(Cl)cc43)c12

> <Outcome>
Inactive

> <StandardizerResult>
Clear Stereo (ID: ClearStereo)
Wedge Clean (ID: WedgeClean)
Mesomerize (ID: Mesomerize)
Tautomerize (ID: Tautomerize)
Aromatize (ID: Aromatize)
Add Explicit Hydrogens (ID: AddExplicitH)
Neutralize (ID: Neutralize)
Clean 2D (ID: Clean2D)

> <chiral flag>
0

> <version>
0

> <i_lp_mmshare_version>
41011

> <i_f3d_flags>
0

> <s_epik_input>
RkMoRikoRiljKG4xKVtjSF1jKFtDSDNdKWMoYzEyKWMoW25IXW4yKVtOSF1DKD1PKVtDQEBIXShbQ0gyXVtDSDJdTzMpYyhjMzQpW2NIXWMoQ2wpW2NIXVtjSF00

> <s_epik_cmdline>
J2VwaWtfcHl0aG9uJywgJy1waHQnLCAnMC41JywgJy1waCcsICc3LjQnLCAnLXRuJywgJzgnLCAnLW1hJywgJzIwMCcsICctaW1hZScsICc8aW5maWxlLm1hZT4nLCAnLW9tYWUnLCAnPG91dGZpbGUubWFlPic=

> <r_lp_tautomer_probability>
1.0

> <r_epik_Ionization_Penalty>
0.0

> <r_epik_Ionization_Penalty_Charging>
0.0

> <r_epik_Ionization_Penalty_Neutral>
0.0

> <r_epik_State_Penalty>
0.0

> <r_epik_Charging_Adjusted_Penalty>
0.0

> <i_epik_Tot_Q>
0

> <i_epik_Tot_abs_Q>
0

> <s_lp_Force_Field>
OPLS3

> <r_lp_Energy>
36.7304

> <b_lp_Chiralities_Consistent>
1

> <s_lp_Variant>
ligprep_COVID_compounds-withfrags-smallmolecules-forvalidation.maegz:55-2

> <i_glide_original_lignum>
222

> <s_i_glide_gridfile>
glide-grid_5RGK_M-PRO_COVID

> <i_i_glide_lignum>
222

> <r_i_docking_score>
-3.52852021356721

> <r_i_glide_ligand_efficiency>
-0.126018579055972

> <r_i_glide_ligand_efficiency_sa>
-0.382666626987764

> <r_i_glide_ligand_efficiency_ln>
-0.814486067146565

> <r_glide_XP_GScore>
-3.52852021356721

> <r_i_glide_gscore>
-3.52852021356721

> <r_i_glide_evdw>
-31.4173488616943

> <r_i_glide_ecoul>
-0.102916687726974

> <r_i_glide_energy>
-31.5202655494213

> <r_i_glide_einternal>
0.793214023113251

> <r_i_glide_emodel>
-44.8364940950369

> <r_glide_XP_HBond>
-0.832271243139973

> <i_i_glide_confnum>
1

> <i_i_glide_posenum>
13

> <r_i_glide_eff_state_penalty>
0.0

> <i_glide_XP_PoseRank>
1

> <MW>
410.08

> <cLogP>
4.44

> <TPSA>
79.9

> <Rotatable Bonds>
2

> <Fraction sp3>
0.28

> <HBA>
4

> <HBD>
2

> <s_epik_Chemistry_Notes>


> <Structure ID>


> <Submission Fragments>


$$$$
ligprep_COVID_compounds-withfrags-smallmolecules-forvalidation.maegz:71
                    3D
 Structure written by MMmdl.
 56 59  0  0  1  0            999 V2000
    7.1767   -4.5022   22.5707 C   0  0  0  0  0  0
    7.7287   -4.1032   23.9255 C   0  0  0  0  0  0
    8.6591   -4.9318   24.5850 C   0  0  0  0  0  0
    9.1458   -4.5360   25.8462 C   0  0  0  0  0  0
    8.7755   -3.3896   26.4537 N   0  0  0  0  0  0
    7.8991   -2.5890   25.8123 C   0  0  0  0  0  0
    7.3431   -2.8943   24.5484 C   0  0  0  0  0  0
    6.3750   -2.0455   23.9484 N   0  0  0  0  0  0
    6.4478   -0.7081   23.8577 C   0  0  0  0  0  0
    7.4598   -0.0663   24.1386 O   0  0  0  0  0  0
    5.1857    0.0175   23.3617 C   0  0  0  0  0  0
    5.1478    0.3451   21.8709 C   0  0  0  0  0  0
    6.1586   -0.0679   20.9747 C   0  0  0  0  0  0
    6.0856    0.2857   19.6204 C   0  0  0  0  0  0
    7.3638   -0.1637   18.5707 Cl  0  0  0  0  0  0
    4.9995    1.0314   19.1331 C   0  0  0  0  0  0
    3.9886    1.4650   20.0088 C   0  0  0  0  0  0
    2.9870    2.2360   19.4595 O   0  0  0  0  0  0
    2.3753    3.2421   20.2655 C   0  0  0  0  0  0
    1.0384    2.7467   20.7110 C   0  0  0  0  0  0
    0.0377    3.4551   21.2408 N   0  0  0  0  0  0
   -0.9810    2.5548   21.4750 N   0  0  0  0  0  0
   -0.5237    1.3728   21.0551 C   0  0  0  0  0  0
   -1.1928    0.0369   21.1407 C   0  0  0  0  0  0
   -1.3157   -0.4563   22.5950 C   0  0  0  0  0  0
   -1.9542   -1.8539   22.6592 C   0  0  0  0  0  0
   -3.3129   -1.8792   21.9405 C   0  0  0  0  0  0
   -3.1854   -1.3959   20.4872 C   0  0  0  0  0  0
   -2.5521    0.0034   20.4168 C   0  0  0  0  0  0
    0.7437    1.4305   20.5760 O   0  0  0  0  0  0
    4.0661    1.1117   21.3776 C   0  0  0  0  0  0
    7.4491   -3.7602   21.8175 H   0  0  0  0  0  0
    6.0885   -4.5734   22.6048 H   0  0  0  0  0  0
    7.5712   -5.4681   22.2520 H   0  0  0  0  0  0
    8.9972   -5.8588   24.1445 H   0  0  0  0  0  0
    9.8530   -5.1541   26.3789 H   0  0  0  0  0  0
    7.6153   -1.6903   26.3401 H   0  0  0  0  0  0
    5.5516   -2.4907   23.5453 H   0  0  0  0  0  0
    4.3001   -0.5637   23.6196 H   0  0  0  0  0  0
    5.1006    0.9597   23.9010 H   0  0  0  0  0  0
    7.0150   -0.6376   21.3028 H   0  0  0  0  0  0
    4.9546    1.3043   18.0896 H   0  0  0  0  0  0
    2.9800    3.5418   21.1228 H   0  0  0  0  0  0
    2.2327    4.1329   19.6528 H   0  0  0  0  0  0
   -0.5414   -0.6687   20.6226 H   0  0  0  0  0  0
   -0.3328   -0.4797   23.0669 H   0  0  0  0  0  0
   -1.9176    0.2467   23.1724 H   0  0  0  0  0  0
   -1.2871   -2.5847   22.2009 H   0  0  0  0  0  0
   -2.0776   -2.1582   23.6980 H   0  0  0  0  0  0
   -3.7264   -2.8882   21.9618 H   0  0  0  0  0  0
   -4.0215   -1.2446   22.4758 H   0  0  0  0  0  0
   -2.5770   -2.1024   19.9195 H   0  0  0  0  0  0
   -4.1657   -1.3836   20.0113 H   0  0  0  0  0  0
   -3.2284    0.7349   20.8613 H   0  0  0  0  0  0
   -2.4284    0.2879   19.3711 H   0  0  0  0  0  0
    3.2992    1.4327   22.0646 H   0  0  0  0  0  0
  1  2  1  0  0  0
  1 32  1  0  0  0
  1 33  1  0  0  0
  1 34  1  0  0  0
  2  3  2  0  0  0
  2  7  1  0  0  0
  3  4  1  0  0  0
  3 35  1  0  0  0
  4  5  2  0  0  0
  4 36  1  0  0  0
  5  6  1  0  0  0
  6  7  2  0  0  0
  6 37  1  0  0  0
  7  8  1  0  0  0
  8  9  1  0  0  0
  8 38  1  0  0  0
  9 10  2  0  0  0
  9 11  1  0  0  0
 11 12  1  0  0  0
 11 39  1  0  0  0
 11 40  1  0  0  0
 12 13  2  0  0  0
 12 31  1  0  0  0
 13 14  1  0  0  0
 13 41  1  0  0  0
 14 15  1  0  0  0
 14 16  2  0  0  0
 16 17  1  0  0  0
 16 42  1  0  0  0
 17 18  1  0  0  0
 17 31  2  0  0  0
 18 19  1  0  0  0
 19 20  1  0  0  0
 19 43  1  0  0  0
 19 44  1  0  0  0
 20 21  2  0  0  0
 20 30  1  0  0  0
 21 22  1  0  0  0
 22 23  2  0  0  0
 23 24  1  0  0  0
 23 30  1  0  0  0
 24 25  1  0  0  0
 24 29  1  0  0  0
 24 45  1  0  0  0
 25 26  1  0  0  0
 25 46  1  0  0  0
 25 47  1  0  0  0
 26 27  1  0  0  0
 26 48  1  0  0  0
 26 49  1  0  0  0
 27 28  1  0  0  0
 27 50  1  0  0  0
 27 51  1  0  0  0
 28 29  1  0  0  0
 28 52  1  0  0  0
 28 53  1  0  0  0
 29 54  1  0  0  0
 29 55  1  0  0  0
 31 56  1  0  0  0
M  END
> <s_m_entry_id>
2631

> <s_m_entry_name>
Compounds-withfrags-for-validation-docking.1846

> <s_m_Source_Path>
/home/rodolpho/data/melina/maestro/glide-dock_XP_5RGK_M-PRO_VALIDATION

> <s_m_Source_File>
glide-dock_XP_5RGK_M-PRO_VALIDATION_pv.maegz

> <i_m_Source_File_Index>
2631

> <CID>
CHO-MSK-6e55470f-7

> <Potency>
20.6464

> <pIC50>
4.68516

> <Source>
Postera

> <smiles>
Cc1ccncc1NC(=O)Cc1cc(Cl)cc(OCc2nnc(C3CCCCC3)o2)c1

> <Outcome>
Inactive

> <StandardizerResult>
Clear Stereo (ID: ClearStereo)
Wedge Clean (ID: WedgeClean)
Mesomerize (ID: Mesomerize)
Tautomerize (ID: Tautomerize)
Aromatize (ID: Aromatize)
Add Explicit Hydrogens (ID: AddExplicitH)
Neutralize (ID: Neutralize)
Clean 2D (ID: Clean2D)

> <chiral flag>
0

> <version>
0

> <i_lp_mmshare_version>
41011

> <i_f3d_flags>
0

> <s_epik_input>
W0NIM11jMVtjSF1bY0hdbltjSF1jMVtOSF1DKD1PKVtDSDJdYzJbY0hdYyhDbClbY0hdYyhbY0hdMilPW0NIMl1jM25uYyhvMylbQ0hdNFtDSDJdW0NIMl1bQ0gyXVtDSDJdW0NIMl00

> <s_epik_cmdline>
J2VwaWtfcHl0aG9uJywgJy1waHQnLCAnMC41JywgJy1waCcsICc3LjQnLCAnLXRuJywgJzgnLCAnLW1hJywgJzIwMCcsICctaW1hZScsICc8aW5maWxlLm1hZT4nLCAnLW9tYWUnLCAnPG91dGZpbGUubWFlPic=

> <r_lp_tautomer_probability>
1.0

> <r_epik_Ionization_Penalty>
0.0032

> <r_epik_Ionization_Penalty_Charging>
0.0

> <r_epik_Ionization_Penalty_Neutral>
0.0032

> <r_epik_State_Penalty>
0.0

> <r_epik_Charging_Adjusted_Penalty>
0.0

> <i_epik_Tot_Q>
0

> <i_epik_Tot_abs_Q>
0

> <s_lp_Force_Field>
OPLS3

> <r_lp_Energy>
36.5196

> <b_lp_Chiralities_Consistent>
1

> <s_lp_Variant>
ligprep_COVID_compounds-withfrags-smallmolecules-forvalidation.maegz:71-1

> <i_glide_original_lignum>
245

> <s_i_glide_gridfile>
glide-grid_5RGK_M-PRO_COVID

> <i_i_glide_lignum>
245

> <r_i_docking_score>
-3.5192255320234

> <r_i_glide_ligand_efficiency>
-0.113523404258819

> <r_i_glide_ligand_efficiency_sa>
-0.356620225324052

> <r_i_glide_ligand_efficiency_ln>
-0.793693208781381

> <r_glide_XP_GScore>
-3.5192255320234

> <r_i_glide_gscore>
-3.5192255320234

> <r_i_glide_evdw>
-38.8238410949707

> <r_i_glide_ecoul>
-7.60225391387939

> <r_i_glide_energy>
-46.4260950088501

> <r_i_glide_einternal>
6.07218265533447

> <r_i_glide_emodel>
-61.4947942663435

> <r_glide_XP_HBond>
-0.569102712638959

> <i_i_glide_confnum>
1

> <i_i_glide_posenum>
22

> <r_i_glide_eff_state_penalty>
0.0

> <i_glide_XP_PoseRank>
1

> <MW>
440.16

> <cLogP>
5.23

> <TPSA>
90.14

> <Rotatable Bonds>
7

> <Fraction sp3>
0.39

> <HBA>
6

> <HBD>
1

> <s_epik_Chemistry_Notes>


> <Structure ID>


> <Submission Fragments>


$$$$
ligprep_COVID_compounds-withfrags-smallmolecules-forvalidation.maegz:15
                    3D
 Structure written by MMmdl.
 73 77  0  0  1  0            999 V2000
   -0.1392   -3.7823   26.2255 C   0  0  0  0  0  0
   -0.9643   -2.4813   26.2998 C   0  0  0  0  0  0
   -2.3701   -2.7825   25.7340 C   0  0  0  0  0  0
   -1.1365   -2.0725   27.7781 C   0  0  0  0  0  0
   -0.2353   -1.3619   25.5319 C   0  0  0  0  0  0
    1.0359   -0.9300   25.9685 C   0  0  0  0  0  0
    1.7249    0.1013   25.3042 C   0  0  0  0  0  0
    1.1671    0.7484   24.1705 C   0  0  0  0  0  0
    1.8625    1.8078   23.4683 N   0  0  0  0  0  0
    3.2131    1.8984   23.5657 C   0  0  0  0  0  0
    3.7818    2.3292   24.5702 O   0  0  0  0  0  0
    3.9716    1.3711   22.3915 C   0  0  0  0  0  0
    3.9748    1.8934   21.1279 C   0  0  0  0  0  0
    4.7172    1.0513   20.3360 N   0  0  0  0  0  0
    4.9766    1.0967   19.0005 C   0  0  0  0  0  0
    5.7082    0.0874   18.4284 C   0  0  0  0  0  0
    6.2082   -0.9634   19.2290 C   0  0  0  0  0  0
    5.9758   -0.9896   20.5856 C   0  0  0  0  0  0
    5.1975    0.0321   21.1889 C   0  0  0  0  0  0
    4.7748    0.2364   22.4378 N   0  0  0  0  0  0
    1.0586    2.8859   22.8183 C   0  0  2  0  0  0
    0.9194    2.7164   21.2814 C   0  0  0  0  0  0
    0.7740    1.5898   20.8027 O   0  0  0  0  0  0
    0.9907    3.8095   20.5066 N   0  0  0  0  0  0
    1.1479    3.7932   19.0591 C   0  0  0  0  0  0
    1.5458    5.1880   18.5537 C   0  0  0  0  0  0
    1.9493    5.2186   17.0876 C   0  0  0  0  0  0
    3.1928    5.7762   16.7204 C   0  0  0  0  0  0
    3.5737    5.8350   15.3670 C   0  0  0  0  0  0
    2.7190    5.3244   14.3719 C   0  0  0  0  0  0
    1.4825    4.7557   14.7315 C   0  0  0  0  0  0
    0.6682    4.2522   13.7741 F   0  0  0  0  0  0
    1.0941    4.7110   16.0849 C   0  0  0  0  0  0
    1.4715    4.3004   23.1873 C   0  0  0  0  0  0
    0.6105    5.0814   23.9941 C   0  0  0  0  0  0
    0.9564    6.3965   24.3508 C   0  0  0  0  0  0
    2.1765    6.9122   23.8873 C   0  0  0  0  0  0
    3.0208    6.2023   23.1196 N   0  0  0  0  0  0
    2.6806    4.9378   22.7959 C   0  0  0  0  0  0
   -0.0997    0.2960   23.7258 C   0  0  0  0  0  0
   -0.7891   -0.7355   24.3916 C   0  0  0  0  0  0
   -0.6229   -4.5888   26.7784 H   0  0  0  0  0  0
    0.8612   -3.6602   26.6437 H   0  0  0  0  0  0
   -0.0269   -4.1186   25.1946 H   0  0  0  0  0  0
   -2.3265   -3.1231   24.6988 H   0  0  0  0  0  0
   -3.0162   -1.9047   25.7762 H   0  0  0  0  0  0
   -2.8643   -3.5708   26.3041 H   0  0  0  0  0  0
   -1.6805   -2.8317   28.3416 H   0  0  0  0  0  0
   -1.6945   -1.1394   27.8653 H   0  0  0  0  0  0
   -0.1799   -1.9301   28.2809 H   0  0  0  0  0  0
    1.5013   -1.3873   26.8288 H   0  0  0  0  0  0
    2.6891    0.3804   25.6994 H   0  0  0  0  0  0
    3.5551    2.7824   20.6812 H   0  0  0  0  0  0
    4.5605    1.9333   18.4453 H   0  0  0  0  0  0
    5.8776    0.0873   17.3584 H   0  0  0  0  0  0
    6.7726   -1.7625   18.7661 H   0  0  0  0  0  0
    6.3551   -1.7989   21.2012 H   0  0  0  0  0  0
    0.0344    2.7820   23.1722 H   0  0  0  0  0  0
    1.0909    4.7017   20.9698 H   0  0  0  0  0  0
    1.9210    3.0713   18.7876 H   0  0  0  0  0  0
    0.2178    3.4633   18.6023 H   0  0  0  0  0  0
    0.7229    5.8881   18.7015 H   0  0  0  0  0  0
    2.3771    5.5599   19.1552 H   0  0  0  0  0  0
    3.8628    6.1584   17.4788 H   0  0  0  0  0  0
    4.5271    6.2611   15.0925 H   0  0  0  0  0  0
    3.0118    5.3688   13.3328 H   0  0  0  0  0  0
    0.1383    4.2816   16.3448 H   0  0  0  0  0  0
   -0.3268    4.6742   24.3452 H   0  0  0  0  0  0
    0.3022    6.9952   24.9665 H   0  0  0  0  0  0
    2.4794    7.9186   24.1362 H   0  0  0  0  0  0
    3.3998    4.4215   22.1810 H   0  0  0  0  0  0
   -0.5683    0.7182   22.8508 H   0  0  0  0  0  0
   -1.7498   -1.0265   23.9988 H   0  0  0  0  0  0
  1  2  1  0  0  0
  1 42  1  0  0  0
  1 43  1  0  0  0
  1 44  1  0  0  0
  2  3  1  0  0  0
  2  4  1  0  0  0
  2  5  1  0  0  0
  3 45  1  0  0  0
  3 46  1  0  0  0
  3 47  1  0  0  0
  4 48  1  0  0  0
  4 49  1  0  0  0
  4 50  1  0  0  0
  5  6  2  0  0  0
  5 41  1  0  0  0
  6  7  1  0  0  0
  6 51  1  0  0  0
  7  8  2  0  0  0
  7 52  1  0  0  0
  8  9  1  0  0  0
  8 40  1  0  0  0
  9 10  1  0  0  0
  9 21  1  0  0  0
 10 11  2  0  0  0
 10 12  1  0  0  0
 12 13  2  0  0  0
 12 20  1  0  0  0
 13 14  1  0  0  0
 13 53  1  0  0  0
 14 15  1  0  0  0
 14 19  1  0  0  0
 15 16  2  0  0  0
 15 54  1  0  0  0
 16 17  1  0  0  0
 16 55  1  0  0  0
 17 18  2  0  0  0
 17 56  1  0  0  0
 18 19  1  0  0  0
 18 57  1  0  0  0
 19 20  2  0  0  0
 21 22  1  0  0  0
 21 34  1  0  0  0
 21 58  1  0  0  0
 22 23  2  0  0  0
 22 24  1  0  0  0
 24 25  1  0  0  0
 24 59  1  0  0  0
 25 26  1  0  0  0
 25 60  1  0  0  0
 25 61  1  0  0  0
 26 27  1  0  0  0
 26 62  1  0  0  0
 26 63  1  0  0  0
 27 28  2  0  0  0
 27 33  1  0  0  0
 28 29  1  0  0  0
 28 64  1  0  0  0
 29 30  2  0  0  0
 29 65  1  0  0  0
 30 31  1  0  0  0
 30 66  1  0  0  0
 31 32  1  0  0  0
 31 33  2  0  0  0
 33 67  1  0  0  0
 34 35  2  0  0  0
 34 39  1  0  0  0
 35 36  1  0  0  0
 35 68  1  0  0  0
 36 37  2  0  0  0
 36 69  1  0  0  0
 37 38  1  0  0  0
 37 70  1  0  0  0
 38 39  2  0  0  0
 39 71  1  0  0  0
 40 41  2  0  0  0
 40 72  1  0  0  0
 41 73  1  0  0  0
M  END
> <s_m_entry_id>
2636

> <s_m_entry_name>
Compounds-withfrags-for-validation-docking.1902

> <s_m_Source_Path>
/home/rodolpho/data/melina/maestro/glide-dock_XP_5RGK_M-PRO_VALIDATION

> <s_m_Source_File>
glide-dock_XP_5RGK_M-PRO_VALIDATION_pv.maegz

> <i_m_Source_File_Index>
2636

> <CID>
ALP-POS-02c6a514-45

> <Potency>
18.2039

> <pIC50>
4.73984

> <Source>
Postera

> <smiles>
CC(C)(C)c1ccc(N(C(=O)c2cn3ccccc3n2)C(C(=O)NCCc2cccc(F)c2)c2cccnc2)cc1

> <Outcome>
Inactive

> <StandardizerResult>
Clear Stereo (ID: ClearStereo)
Wedge Clean (ID: WedgeClean)
Mesomerize (ID: Mesomerize)
Tautomerize (ID: Tautomerize)
Aromatize (ID: Aromatize)
Add Explicit Hydrogens (ID: AddExplicitH)
Neutralize (ID: Neutralize)
Clean 2D (ID: Clean2D)

> <chiral flag>
0

> <version>
0

> <i_lp_mmshare_version>
41011

> <i_f3d_flags>
0

> <s_epik_input>
W2NIXTFbY0hdW2NIXVtjSF1jKG4xMiluYyhbY0hdMilDKD1PKU4oYyhbY0hdW2NIXTMpW2NIXVtjSF1jM0MoW0NIM10pKFtDSDNdKVtDSDNdKVtDQEBIXShjNFtjSF1bY0hdW2NIXW5bY0hdNClDKD1PKVtOSF1bQ0gyXVtDSDJdYzVbY0hdW2NIXVtjSF1jKEYpW2NIXTU=

> <s_epik_cmdline>
J2VwaWtfcHl0aG9uJywgJy1waHQnLCAnMC41JywgJy1waCcsICc3LjQnLCAnLXRuJywgJzgnLCAnLW1hJywgJzIwMCcsICctaW1hZScsICc8aW5maWxlLm1hZT4nLCAnLW9tYWUnLCAnPG91dGZpbGUubWFlPic=

> <r_lp_tautomer_probability>
1.0

> <r_epik_Ionization_Penalty>
0.0065

> <r_epik_Ionization_Penalty_Charging>
0.006

> <r_epik_Ionization_Penalty_Neutral>
5.0E-4

> <r_epik_State_Penalty>
0.0

> <r_epik_Charging_Adjusted_Penalty>
0.00604208

> <i_epik_Tot_Q>
0

> <i_epik_Tot_abs_Q>
0

> <s_lp_Force_Field>
OPLS3

> <r_lp_Energy>
87.3207

> <b_lp_Chiralities_Consistent>
1

> <s_lp_Variant>
ligprep_COVID_compounds-withfrags-smallmolecules-forvalidation.maegz:15-2

> <i_glide_original_lignum>
124

> <s_i_glide_gridfile>
glide-grid_5RGK_M-PRO_COVID

> <i_i_glide_lignum>
124

> <r_i_docking_score>
-3.51423148404165

> <r_i_glide_ligand_efficiency>
-0.0857129630254061

> <r_i_glide_ligand_efficiency_sa>
-0.295556916462635

> <r_i_glide_ligand_efficiency_ln>
-0.745555904165643

> <r_glide_XP_GScore>
-3.51423148404165

> <r_i_glide_gscore>
-3.51423148404165

> <r_i_glide_evdw>
-36.1373901367188

> <r_i_glide_ecoul>
-7.7870454788208

> <r_i_glide_energy>
-43.9244356155396

> <r_i_glide_einternal>
11.6533651351929

> <r_i_glide_emodel>
-56.4080471336429

> <r_glide_XP_HBond>
-0.7

> <i_i_glide_confnum>
3

> <i_i_glide_posenum>
26

> <r_i_glide_eff_state_penalty>
0.0

> <i_glide_XP_PoseRank>
1

> <MW>
549.25

> <cLogP>
5.91

> <TPSA>
79.6

> <Rotatable Bonds>
8

> <Fraction sp3>
0.21

> <HBA>
5

> <HBD>
1

> <s_epik_Chemistry_Notes>


> <Structure ID>


> <Submission Fragments>


$$$$
ligprep_COVID_compounds-withfrags-smallmolecules-forvalidation.maegz:31
                    3D
 Structure written by MMmdl.
 56 59  0  0  1  0            999 V2000
   -0.1037    6.1197   18.9017 N   0  0  0  0  0  0
    0.5739    5.3760   19.4723 C   0  0  0  0  0  0
    1.4180    4.4372   20.1963 C   0  0  0  0  0  0
    1.7193    3.1860   19.6247 C   0  0  0  0  0  0
    2.5055    2.2519   20.3298 C   0  0  0  0  0  0
    2.9939    2.5724   21.6137 C   0  0  0  0  0  0
    3.8034    1.6379   22.3229 N   0  0  0  0  0  0
    3.3058    1.0367   23.4410 C   0  0  0  0  0  0
    3.9733    0.3114   24.1711 O   0  0  0  0  0  0
    1.8875    1.2614   23.8435 C   0  0  0  0  0  0
    1.3404    1.4102   25.0891 C   0  0  0  0  0  0
   -0.0699    1.5035   24.9178 C   0  0  0  0  0  0
   -0.2910    1.3960   23.5757 C   0  0  0  0  0  0
    0.8852    1.2407   22.9089 O   0  0  0  0  0  0
    5.2341    1.6522   21.8997 C   0  0  1  0  0  0
    6.3678    1.5243   22.9588 C   0  0  0  0  0  0
    6.7323    0.4388   23.4136 O   0  0  0  0  0  0
    6.9079    2.6860   23.3597 N   0  0  0  0  0  0
    7.7626    2.8721   24.5266 C   0  0  0  0  0  0
    8.9915    3.7699   24.2554 C   0  0  0  0  0  0
   10.2752    3.0944   23.7702 C   0  0  0  0  0  0
   10.6322    1.7858   24.1710 C   0  0  0  0  0  0
   11.8608    1.2309   23.7690 C   0  0  0  0  0  0
   12.7515    1.9710   22.9709 C   0  0  0  0  0  0
   12.4131    3.2787   22.5781 C   0  0  0  0  0  0
   13.2760    4.0102   21.8335 F   0  0  0  0  0  0
   11.1796    3.8316   22.9747 C   0  0  0  0  0  0
    5.5033    0.6905   20.7753 C   0  0  0  0  0  0
    5.6999   -0.6984   20.9411 C   0  0  0  0  0  0
    5.9750   -1.5023   19.8237 C   0  0  0  0  0  0
    6.0093   -0.9119   18.5509 C   0  0  0  0  0  0
    5.8242    0.4026   18.3565 N   0  0  0  0  0  0
    5.5748    1.1642   19.4443 C   0  0  0  0  0  0
    2.7159    3.8428   22.1726 C   0  0  0  0  0  0
    1.9249    4.7694   21.4674 C   0  0  0  0  0  0
    1.3664    2.9494   18.6322 H   0  0  0  0  0  0
    2.7510    1.3030   19.8774 H   0  0  0  0  0  0
    1.8919    1.4359   26.0174 H   0  0  0  0  0  0
   -0.8248    1.6139   25.6790 H   0  0  0  0  0  0
   -1.1771    1.3893   22.9555 H   0  0  0  0  0  0
    5.3764    2.6327   21.4878 H   0  0  0  0  0  0
    6.6042    3.5163   22.8561 H   0  0  0  0  0  0
    7.1289    3.4032   25.2405 H   0  0  0  0  0  0
    8.0140    1.9396   25.0308 H   0  0  0  0  0  0
    8.7178    4.5628   23.5598 H   0  0  0  0  0  0
    9.2524    4.2743   25.1864 H   0  0  0  0  0  0
    9.9865    1.1960   24.8026 H   0  0  0  0  0  0
   12.1270    0.2364   24.0895 H   0  0  0  0  0  0
   13.7021    1.5489   22.6796 H   0  0  0  0  0  0
   10.9365    4.8431   22.6774 H   0  0  0  0  0  0
    5.6276   -1.1617   21.9141 H   0  0  0  0  0  0
    6.1251   -2.5634   19.9419 H   0  0  0  0  0  0
    6.2004   -1.5089   17.6739 H   0  0  0  0  0  0
    5.4257    2.2118   19.2350 H   0  0  0  0  0  0
    3.1180    4.1172   23.1385 H   0  0  0  0  0  0
    1.7243    5.7396   21.8980 H   0  0  0  0  0  0
  1  2  3  0  0  0
  2  3  1  0  0  0
  3  4  2  0  0  0
  3 35  1  0  0  0
  4  5  1  0  0  0
  4 36  1  0  0  0
  5  6  2  0  0  0
  5 37  1  0  0  0
  6  7  1  0  0  0
  6 34  1  0  0  0
  7  8  1  0  0  0
  7 15  1  0  0  0
  8  9  2  0  0  0
  8 10  1  0  0  0
 10 11  2  0  0  0
 10 14  1  0  0  0
 11 12  1  0  0  0
 11 38  1  0  0  0
 12 13  2  0  0  0
 12 39  1  0  0  0
 13 14  1  0  0  0
 13 40  1  0  0  0
 15 16  1  0  0  0
 15 28  1  0  0  0
 15 41  1  0  0  0
 16 17  2  0  0  0
 16 18  1  0  0  0
 18 19  1  0  0  0
 18 42  1  0  0  0
 19 20  1  0  0  0
 19 43  1  0  0  0
 19 44  1  0  0  0
 20 21  1  0  0  0
 20 45  1  0  0  0
 20 46  1  0  0  0
 21 22  2  0  0  0
 21 27  1  0  0  0
 22 23  1  0  0  0
 22 47  1  0  0  0
 23 24  2  0  0  0
 23 48  1  0  0  0
 24 25  1  0  0  0
 24 49  1  0  0  0
 25 26  1  0  0  0
 25 27  2  0  0  0
 27 50  1  0  0  0
 28 29  2  0  0  0
 28 33  1  0  0  0
 29 30  1  0  0  0
 29 51  1  0  0  0
 30 31  2  0  0  0
 30 52  1  0  0  0
 31 32  1  0  0  0
 31 53  1  0  0  0
 32 33  2  0  0  0
 33 54  1  0  0  0
 34 35  2  0  0  0
 34 55  1  0  0  0
 35 56  1  0  0  0
M  END
> <s_m_entry_id>
2664

> <s_m_entry_name>
Compounds-withfrags-for-validation-docking.1886

> <s_m_Source_Path>
/home/rodolpho/data/melina/maestro/glide-dock_XP_5RGK_M-PRO_VALIDATION

> <s_m_Source_File>
glide-dock_XP_5RGK_M-PRO_VALIDATION_pv.maegz

> <i_m_Source_File_Index>
2664

> <CID>
ALP-POS-b0bc6a46-24

> <Potency>
10.3952

> <pIC50>
4.98317

> <Source>
Postera

> <smiles>
N#Cc1ccc(N(C(=O)c2ccco2)C(C(=O)NCCc2cccc(F)c2)c2cccnc2)cc1

> <Outcome>
Inactive

> <StandardizerResult>
Clear Stereo (ID: ClearStereo)
Wedge Clean (ID: WedgeClean)
Mesomerize (ID: Mesomerize)
Tautomerize (ID: Tautomerize)
Aromatize (ID: Aromatize)
Add Explicit Hydrogens (ID: AddExplicitH)
Neutralize (ID: Neutralize)
Clean 2D (ID: Clean2D)

> <chiral flag>
0

> <version>
0

> <i_lp_mmshare_version>
41011

> <i_f3d_flags>
0

> <s_epik_input>
TiNDYzFbY0hdW2NIXWMoW2NIXVtjSF0xKU4oQyg9TyljMltjSF1bY0hdW2NIXW8yKVtDQEhdKGMzW2NIXVtjSF1bY0hdbltjSF0zKUMoPU8pW05IXVtDSDJdW0NIMl1jNFtjSF1bY0hdW2NIXWMoRilbY0hdNA==

> <s_epik_cmdline>
J2VwaWtfcHl0aG9uJywgJy1waHQnLCAnMC41JywgJy1waCcsICc3LjQnLCAnLXRuJywgJzgnLCAnLW1hJywgJzIwMCcsICctaW1hZScsICc8aW5maWxlLm1hZT4nLCAnLW9tYWUnLCAnPG91dGZpbGUubWFlPic=

> <r_lp_tautomer_probability>
1.0

> <r_epik_Ionization_Penalty>
5.0E-4

> <r_epik_Ionization_Penalty_Charging>
0.0

> <r_epik_Ionization_Penalty_Neutral>
5.0E-4

> <r_epik_State_Penalty>
0.0

> <r_epik_Charging_Adjusted_Penalty>
0.0

> <i_epik_Tot_Q>
0

> <i_epik_Tot_abs_Q>
0

> <s_lp_Force_Field>
OPLS3

> <r_lp_Energy>
71.2978

> <b_lp_Chiralities_Consistent>
1

> <s_lp_Variant>
ligprep_COVID_compounds-withfrags-smallmolecules-forvalidation.maegz:31-1

> <i_glide_original_lignum>
163

> <s_i_glide_gridfile>
glide-grid_5RGK_M-PRO_COVID

> <i_i_glide_lignum>
163

> <r_i_docking_score>
-3.49444892150987

> <r_i_glide_ligand_efficiency>
-0.0998413977574248

> <r_i_glide_ligand_efficiency_sa>
-0.326587832179407

> <r_i_glide_ligand_efficiency_ln>
-0.76710909338667

> <r_glide_XP_GScore>
-3.49444892150987

> <r_i_glide_gscore>
-3.49444892150987

> <r_i_glide_evdw>
-36.7693672180176

> <r_i_glide_ecoul>
-6.54799509048462

> <r_i_glide_energy>
-43.3173623085022

> <r_i_glide_einternal>
6.67372465133667

> <r_i_glide_emodel>
-55.5447482821341

> <r_glide_XP_HBond>
-0.633032803079625

> <i_i_glide_confnum>
1

> <i_i_glide_posenum>
2

> <r_i_glide_eff_state_penalty>
0.0

> <i_glide_XP_PoseRank>
1

> <MW>
468.16

> <cLogP>
4.43

> <TPSA>
99.23

> <Rotatable Bonds>
8

> <Fraction sp3>
0.11

> <HBA>
5

> <HBD>
1

> <s_epik_Chemistry_Notes>


> <Structure ID>


> <Submission Fragments>


$$$$
ligprep_COVID_compounds-withfrags-smallmolecules-forvalidation.maegz:30
                    3D
 Structure written by MMmdl.
 62 65  0  0  1  0            999 V2000
    6.0232   -0.6783   23.7025 C   0  0  0  0  0  0
    4.9791    0.1538   23.2116 O   0  0  0  0  0  0
    4.9140    0.4424   21.8595 C   0  0  0  0  0  0
    5.6623   -0.2351   20.8806 C   0  0  0  0  0  0
    5.5606    0.1104   19.5308 C   0  0  0  0  0  0
    6.3818   -0.6389   18.4974 C   0  0  0  0  0  0
    4.7037    1.1418   19.1429 C   0  0  0  0  0  0
    3.9539    1.8241   20.0974 C   0  0  0  0  0  0
    4.0606    1.4833   21.4504 C   0  0  0  0  0  0
    3.2721    2.1825   22.3904 N   0  0  0  0  0  0
    3.8414    2.9697   23.3708 C   0  0  0  0  0  0
    4.6783    2.5444   24.1681 O   0  0  0  0  0  0
    3.4692    4.3683   23.5019 C   0  0  0  0  0  0
    3.8694    5.3120   24.4445 C   0  0  0  0  0  0
    3.3239    6.5381   24.0626 C   0  0  0  0  0  0
    2.6584    6.3091   22.8722 C   0  0  0  0  0  0
    2.7732    5.0038   22.5183 O   0  0  0  0  0  0
    1.7961    2.0920   22.1669 C   0  0  2  0  0  0
    1.3317    2.3935   20.7155 C   0  0  0  0  0  0
    0.4691    1.7047   20.1704 O   0  0  0  0  0  0
    1.9735    3.4010   20.0979 N   0  0  0  0  0  0
    2.0197    3.5956   18.6476 C   0  0  0  0  0  0
    1.9398    5.0763   18.2117 C   0  0  0  0  0  0
    2.1258    5.3042   16.7159 C   0  0  0  0  0  0
    3.2638    5.9641   16.2382 C   0  0  0  0  0  0
    3.4454    6.1500   14.8678 C   0  0  0  0  0  0
    2.4924    5.6750   13.9669 C   0  0  0  0  0  0
    1.3548    5.0181   14.4368 C   0  0  0  0  0  0
    0.4318    4.5564   13.5632 F   0  0  0  0  0  0
    1.1703    4.8354   15.8080 C   0  0  0  0  0  0
    1.0067    2.8034   23.2559 C   0  0  0  0  0  0
    1.4956    2.7953   24.5693 C   0  0  0  0  0  0
    0.7830    3.4254   25.5903 C   0  0  0  0  0  0
   -0.4214    4.0507   25.2707 C   0  0  0  0  0  0
   -0.9289    4.0704   24.0135 N   0  0  0  0  0  0
   -0.2198    3.4530   23.0343 C   0  0  0  0  0  0
    5.9080   -0.7995   24.7795 H   0  0  0  0  0  0
    7.0043   -0.2360   23.5233 H   0  0  0  0  0  0
    5.9873   -1.6722   23.2539 H   0  0  0  0  0  0
    6.3334   -1.0356   21.1535 H   0  0  0  0  0  0
    6.2175   -0.2548   17.4898 H   0  0  0  0  0  0
    6.1196   -1.6974   18.5006 H   0  0  0  0  0  0
    7.4453   -0.5498   18.7215 H   0  0  0  0  0  0
    4.6148    1.4175   18.1022 H   0  0  0  0  0  0
    3.2908    2.6185   19.7849 H   0  0  0  0  0  0
    4.4815    5.1280   25.3156 H   0  0  0  0  0  0
    3.4212    7.4807   24.5809 H   0  0  0  0  0  0
    2.1051    6.9420   22.1941 H   0  0  0  0  0  0
    1.5518    1.0350   22.2956 H   0  0  0  0  0  0
    2.4829    4.0689   20.6582 H   0  0  0  0  0  0
    2.9169    3.1374   18.2251 H   0  0  0  0  0  0
    1.1788    3.0524   18.2154 H   0  0  0  0  0  0
    0.9768    5.4917   18.5116 H   0  0  0  0  0  0
    2.6833    5.6588   18.7583 H   0  0  0  0  0  0
    4.0157    6.3222   16.9262 H   0  0  0  0  0  0
    4.3299    6.6517   14.5037 H   0  0  0  0  0  0
    2.6379    5.8131   12.9057 H   0  0  0  0  0  0
    0.2904    4.3189   16.1628 H   0  0  0  0  0  0
    2.4290    2.3034   24.8015 H   0  0  0  0  0  0
    1.1559    3.4276   26.6037 H   0  0  0  0  0  0
   -1.0023    4.5495   26.0324 H   0  0  0  0  0  0
   -0.6675    3.4929   22.0528 H   0  0  0  0  0  0
  1  2  1  0  0  0
  1 37  1  0  0  0
  1 38  1  0  0  0
  1 39  1  0  0  0
  2  3  1  0  0  0
  3  4  2  0  0  0
  3  9  1  0  0  0
  4  5  1  0  0  0
  4 40  1  0  0  0
  5  6  1  0  0  0
  5  7  2  0  0  0
  6 41  1  0  0  0
  6 42  1  0  0  0
  6 43  1  0  0  0
  7  8  1  0  0  0
  7 44  1  0  0  0
  8  9  2  0  0  0
  8 45  1  0  0  0
  9 10  1  0  0  0
 10 11  1  0  0  0
 10 18  1  0  0  0
 11 12  2  0  0  0
 11 13  1  0  0  0
 13 14  2  0  0  0
 13 17  1  0  0  0
 14 15  1  0  0  0
 14 46  1  0  0  0
 15 16  2  0  0  0
 15 47  1  0  0  0
 16 17  1  0  0  0
 16 48  1  0  0  0
 18 19  1  0  0  0
 18 31  1  0  0  0
 18 49  1  0  0  0
 19 20  2  0  0  0
 19 21  1  0  0  0
 21 22  1  0  0  0
 21 50  1  0  0  0
 22 23  1  0  0  0
 22 51  1  0  0  0
 22 52  1  0  0  0
 23 24  1  0  0  0
 23 53  1  0  0  0
 23 54  1  0  0  0
 24 25  2  0  0  0
 24 30  1  0  0  0
 25 26  1  0  0  0
 25 55  1  0  0  0
 26 27  2  0  0  0
 26 56  1  0  0  0
 27 28  1  0  0  0
 27 57  1  0  0  0
 28 29  1  0  0  0
 28 30  2  0  0  0
 30 58  1  0  0  0
 31 32  2  0  0  0
 31 36  1  0  0  0
 32 33  1  0  0  0
 32 59  1  0  0  0
 33 34  2  0  0  0
 33 60  1  0  0  0
 34 35  1  0  0  0
 34 61  1  0  0  0
 35 36  2  0  0  0
 36 62  1  0  0  0
M  END
> <s_m_entry_id>
2683

> <s_m_entry_name>
Compounds-withfrags-for-validation-docking.1887

> <s_m_Source_Path>
/home/rodolpho/data/melina/maestro/glide-dock_XP_5RGK_M-PRO_VALIDATION

> <s_m_Source_File>
glide-dock_XP_5RGK_M-PRO_VALIDATION_pv.maegz

> <i_m_Source_File_Index>
2683

> <CID>
ALP-POS-b0bc6a46-25

> <Potency>
99.5

> <pIC50>
4.00218

> <Source>
Postera

> <smiles>
COc1cc(C)ccc1N(C(=O)c1ccco1)C(C(=O)NCCc1cccc(F)c1)c1cccnc1

> <Outcome>
Inactive

> <StandardizerResult>
Clear Stereo (ID: ClearStereo)
Wedge Clean (ID: WedgeClean)
Mesomerize (ID: Mesomerize)
Tautomerize (ID: Tautomerize)
Aromatize (ID: Aromatize)
Add Explicit Hydrogens (ID: AddExplicitH)
Neutralize (ID: Neutralize)
Clean 2D (ID: Clean2D)

> <chiral flag>
0

> <version>
0

> <i_lp_mmshare_version>
41011

> <i_f3d_flags>
0

> <s_epik_input>
W0NIM11PYzFbY0hdYyhbQ0gzXSlbY0hdW2NIXWMxTihDKD1PKWMyW2NIXVtjSF1bY0hdbzIpW0NAQEhdKGMzW2NIXVtjSF1bY0hdbltjSF0zKUMoPU8pW05IXVtDSDJdW0NIMl1jNFtjSF1bY0hdW2NIXWMoRilbY0hdNA==

> <s_epik_cmdline>
J2VwaWtfcHl0aG9uJywgJy1waHQnLCAnMC41JywgJy1waCcsICc3LjQnLCAnLXRuJywgJzgnLCAnLW1hJywgJzIwMCcsICctaW1hZScsICc8aW5maWxlLm1hZT4nLCAnLW9tYWUnLCAnPG91dGZpbGUubWFlPic=

> <r_lp_tautomer_probability>
1.0

> <r_epik_Ionization_Penalty>
6.0E-4

> <r_epik_Ionization_Penalty_Charging>
0.0

> <r_epik_Ionization_Penalty_Neutral>
6.0E-4

> <r_epik_State_Penalty>
0.0

> <r_epik_Charging_Adjusted_Penalty>
0.0

> <i_epik_Tot_Q>
0

> <i_epik_Tot_abs_Q>
0

> <s_lp_Force_Field>
OPLS3

> <r_lp_Energy>
74.8986

> <b_lp_Chiralities_Consistent>
1

> <s_lp_Variant>
ligprep_COVID_compounds-withfrags-smallmolecules-forvalidation.maegz:30-2

> <i_glide_original_lignum>
162

> <s_i_glide_gridfile>
glide-grid_5RGK_M-PRO_COVID

> <i_i_glide_lignum>
162

> <r_i_docking_score>
-3.47975539009553

> <r_i_glide_ligand_efficiency>
-0.0966598719470981

> <r_i_glide_ligand_efficiency_sa>
-0.319163864675545

> <r_i_glide_ligand_efficiency_ln>
-0.759188613992645

> <r_glide_XP_GScore>
-3.47975539009553

> <r_i_glide_gscore>
-3.47975539009553

> <r_i_glide_evdw>
-32.0846481323242

> <r_i_glide_ecoul>
-8.40525531768799

> <r_i_glide_energy>
-40.4899034500122

> <r_i_glide_einternal>
6.34831809997559

> <r_i_glide_emodel>
-50.8010377709405

> <r_glide_XP_HBond>
-0.806478427341281

> <i_i_glide_confnum>
3

> <i_i_glide_posenum>
15

> <r_i_glide_eff_state_penalty>
0.0

> <i_glide_XP_PoseRank>
1

> <MW>
487.19

> <cLogP>
4.88

> <TPSA>
84.67

> <Rotatable Bonds>
9

> <Fraction sp3>
0.18

> <HBA>
5

> <HBD>
1

> <s_epik_Chemistry_Notes>


> <Structure ID>


> <Submission Fragments>


$$$$
ligprep_COVID_compounds-withfrags-smallmolecules-forvalidation.maegz:92
                    3D
 Structure written by MMmdl.
 48 51  0  0  1  0            999 V2000
    4.2943   -4.2082   32.3655 C   0  0  0  0  0  0
    5.1404   -5.4694   32.3743 C   0  0  0  0  0  0
    5.5750   -6.0058   33.6009 C   0  0  0  0  0  0
    6.3924   -7.1477   33.5815 C   0  0  0  0  0  0
    6.7750   -7.7637   32.4461 N   0  0  0  0  0  0
    6.3604   -7.2431   31.2712 C   0  0  0  0  0  0
    5.5009   -6.1205   31.1696 C   0  0  0  0  0  0
    5.0020   -5.5895   29.9638 N   0  0  0  0  0  0
    4.8577   -6.1242   28.6761 C   0  0  0  0  0  0
    5.1684   -7.3291   28.5625 O   0  5  0  0  0  0
    4.3853   -5.1709   27.7764 C   0  0  0  0  0  0
    4.1597   -5.4007   26.3352 C   0  0  0  0  0  0
    2.9902   -5.3637   25.9410 O   0  0  0  0  0  0
    5.2688   -5.6284   25.3427 C   0  0  0  0  0  0
    4.8827   -6.0196   24.0986 C   0  0  0  0  0  0
    5.7997   -6.1275   22.9707 C   0  0  0  0  0  0
    5.4882   -6.5637   21.8673 O   0  0  0  0  0  0
    7.0574   -5.7275   23.2098 N   0  0  0  0  0  0
    7.5700   -5.3637   24.4745 C   0  0  0  0  0  0
    8.9526   -5.1223   24.5707 C   0  0  0  0  0  0
    9.5380   -4.8327   25.8098 C   0  0  0  0  0  0
    8.7215   -4.7630   26.9466 C   0  0  0  0  0  0
    7.3332   -4.9767   26.8456 C   0  0  0  0  0  0
    6.7161   -5.3001   25.6064 C   0  0  0  0  0  0
    3.9863   -3.8029   28.1741 C   0  0  0  0  0  0
    4.7428   -2.6879   27.7593 C   0  0  0  0  0  0
    4.3832   -1.3946   28.1727 C   0  0  0  0  0  0
    3.2549   -1.1976   28.9909 C   0  0  0  0  0  0
    2.4831   -2.3037   29.3939 C   0  0  0  0  0  0
    1.1007   -2.0722   30.3997 Cl  0  0  0  0  0  0
    2.8460   -3.6004   28.9826 C   0  0  0  0  0  0
    4.7939   -3.4257   31.7926 H   0  0  0  0  0  0
    4.1328   -3.8310   33.3751 H   0  0  0  0  0  0
    3.3217   -4.4045   31.9141 H   0  0  0  0  0  0
    5.3245   -5.5330   34.5382 H   0  0  0  0  0  0
    6.7559   -7.5750   34.5043 H   0  0  0  0  0  0
    6.7339   -7.7635   30.4039 H   0  0  0  0  0  0
    4.6575   -4.6541   30.1188 H   0  0  0  0  0  0
    3.8462   -6.2305   23.8799 H   0  0  0  0  0  0
    7.7163   -5.7802   22.4496 H   0  0  0  0  0  0
    9.5749   -5.1901   23.6965 H   0  0  0  0  0  0
   10.6047   -4.6806   25.8885 H   0  0  0  0  0  0
    9.1664   -4.5637   27.9072 H   0  0  0  0  0  0
    6.7980   -4.8928   27.7691 H   0  0  0  0  0  0
    5.6140   -2.8204   27.1358 H   0  0  0  0  0  0
    4.9909   -0.5637   27.8606 H   0  0  0  0  0  0
    2.9841   -0.2024   29.3105 H   0  0  0  0  0  0
    2.2601   -4.4503   29.3009 H   0  0  0  0  0  0
  1  2  1  0  0  0
  1 32  1  0  0  0
  1 33  1  0  0  0
  1 34  1  0  0  0
  2  3  2  0  0  0
  2  7  1  0  0  0
  3  4  1  0  0  0
  3 35  1  0  0  0
  4  5  2  0  0  0
  4 36  1  0  0  0
  5  6  1  0  0  0
  6  7  2  0  0  0
  6 37  1  0  0  0
  7  8  1  0  0  0
  8  9  1  0  0  0
  8 38  1  0  0  0
  9 10  1  0  0  0
  9 11  2  0  0  0
 11 12  1  0  0  0
 11 25  1  0  0  0
 12 13  2  0  0  0
 12 14  1  0  0  0
 14 15  2  0  0  0
 14 24  1  0  0  0
 15 16  1  0  0  0
 15 39  1  0  0  0
 16 17  2  0  0  0
 16 18  1  0  0  0
 18 19  1  0  0  0
 18 40  1  0  0  0
 19 20  2  0  0  0
 19 24  1  0  0  0
 20 21  1  0  0  0
 20 41  1  0  0  0
 21 22  2  0  0  0
 21 42  1  0  0  0
 22 23  1  0  0  0
 22 43  1  0  0  0
 23 24  2  0  0  0
 23 44  1  0  0  0
 25 26  2  0  0  0
 25 31  1  0  0  0
 26 27  1  0  0  0
 26 45  1  0  0  0
 27 28  2  0  0  0
 27 46  1  0  0  0
 28 29  1  0  0  0
 28 47  1  0  0  0
 29 30  1  0  0  0
 29 31  2  0  0  0
 31 48  1  0  0  0
M  CHG  1  10  -1
M  END
> <s_m_entry_id>
2694

> <s_m_entry_name>
Compounds-withfrags-for-validation-docking.1825

> <s_m_Source_Path>
/home/rodolpho/data/melina/maestro/glide-dock_XP_5RGK_M-PRO_VALIDATION

> <s_m_Source_File>
glide-dock_XP_5RGK_M-PRO_VALIDATION_pv.maegz

> <i_m_Source_File_Index>
2694

> <CID>
ALP-POS-ddb41b15-1

> <Potency>
15.8

> <pIC50>
4.80134

> <Source>
Postera

> <smiles>
Cc1ccncc1NC(=O)C(C(=O)c1cc(=O)[nH]c2ccccc12)c1cccc(Cl)c1

> <Outcome>
Inactive

> <StandardizerResult>
Clear Stereo (ID: ClearStereo)
Wedge Clean (ID: WedgeClean)
Mesomerize (ID: Mesomerize)
Tautomerize (ID: Tautomerize)
Aromatize (ID: Aromatize)
Add Explicit Hydrogens (ID: AddExplicitH)
Neutralize (ID: Neutralize)
Clean 2D (ID: Clean2D)

> <chiral flag>
0

> <version>
0

> <i_lp_mmshare_version>
41011

> <i_f3d_flags>
0

> <s_epik_input>
W0NIM11jMVtjSF1bY0hdbltjSF1jMVtOSF1DKD1PKVtDQEhdKGMyW2NIXVtjSF1bY0hdYyhDbClbY0hdMilDKD1PKWMoW2NIXWMoPU8pW25IXTMpYyhjMzQpW2NIXVtjSF1bY0hdW2NIXTQ=

> <s_epik_cmdline>
J2VwaWtfcHl0aG9uJywgJy1waHQnLCAnMC41JywgJy1waCcsICc3LjQnLCAnLXRuJywgJzgnLCAnLW1hJywgJzIwMCcsICctaW1hZScsICc8aW5maWxlLm1hZT4nLCAnLW9tYWUnLCAnPG91dGZpbGUubWFlPic=

> <r_lp_tautomer_probability>
1.0

> <r_epik_Ionization_Penalty>
0.0068

> <r_epik_Ionization_Penalty_Charging>
0.0056

> <r_epik_Ionization_Penalty_Neutral>
0.0012

> <r_epik_State_Penalty>
0.0

> <r_epik_Charging_Adjusted_Penalty>
0.00556717

> <i_epik_Tot_Q>
-1

> <i_epik_Tot_abs_Q>
1

> <s_lp_Force_Field>
OPLS3

> <r_lp_Energy>
64.2781

> <b_lp_Chiralities_Consistent>
1

> <s_lp_Variant>
ligprep_COVID_compounds-withfrags-smallmolecules-forvalidation.maegz:92-1

> <i_glide_original_lignum>
280

> <s_i_glide_gridfile>
glide-grid_5RGK_M-PRO_COVID

> <i_i_glide_lignum>
280

> <r_i_docking_score>
-3.47334890545848

> <r_i_glide_ligand_efficiency>
-0.112043513079306

> <r_i_glide_ligand_efficiency_sa>
-0.351971323810405

> <r_i_glide_ligand_efficiency_ln>
-0.783346623541236

> <r_glide_XP_GScore>
-3.47334890545848

> <r_i_glide_gscore>
-3.47334890545848

> <r_i_glide_evdw>
-28.9149303436279

> <r_i_glide_ecoul>
-9.91324234008789

> <r_i_glide_energy>
-38.8281726837158

> <r_i_glide_einternal>
15.6259593963623

> <r_i_glide_emodel>
-35.650074162537

> <r_glide_XP_HBond>
-1.33

> <i_i_glide_confnum>
1

> <i_i_glide_posenum>
1

> <r_i_glide_eff_state_penalty>
0.0

> <i_glide_XP_PoseRank>
1

> <MW>
431.1

> <cLogP>
4.49

> <TPSA>
91.92

> <Rotatable Bonds>
5

> <Fraction sp3>
0.08

> <HBA>
4

> <HBD>
2

> <s_epik_Chemistry_Notes>


> <Structure ID>


> <Submission Fragments>


$$$$
ligprep_COVID_compounds-withfrags-smallmolecules-forvalidation.maegz:21
                    3D
 Structure written by MMmdl.
 70 73  0  0  1  0            999 V2000
    9.5506    3.8595   23.9385 C   0  0  0  0  0  0
    9.8708    2.4435   24.0491 N   0  0  0  0  0  0
   11.1186    1.9761   24.1713 C   0  0  0  0  0  0
   11.2141    0.6661   24.2882 N   0  0  0  0  0  0
    9.8994    0.2401   24.1709 C   0  0  0  0  0  0
    9.0340    1.3084   23.9834 C   0  0  0  0  0  0
    7.5716    1.4300   23.6120 C   0  0  0  0  0  0
    7.1425    2.5527   23.3686 O   0  0  0  0  0  0
    6.7573    0.3323   23.4893 N   0  0  0  0  0  0
    7.1081   -0.9368   24.0481 C   0  0  0  0  0  0
    7.4574   -1.0576   25.4122 C   0  0  0  0  0  0
    7.8393   -2.2983   25.9482 C   0  0  0  0  0  0
    7.8588   -3.4578   25.1377 C   0  0  0  0  0  0
    8.2047   -4.8366   25.7107 C   0  0  0  0  0  0
    6.8818   -5.5967   25.8900 C   0  0  0  0  0  0
    8.9021   -4.7570   27.0826 C   0  0  0  0  0  0
    9.1520   -5.6175   24.7699 C   0  0  0  0  0  0
    7.4691   -3.3404   23.7850 C   0  0  0  0  0  0
    7.0980   -2.0976   23.2464 C   0  0  0  0  0  0
    5.4397    0.3792   22.7624 C   0  0  1  0  0  0
    4.3778    1.3415   23.3620 C   0  0  0  0  0  0
    3.5591    0.8961   24.1648 O   0  0  0  0  0  0
    4.3847    2.6356   23.0033 N   0  0  0  0  0  0
    3.5742    3.6991   23.5839 C   0  0  0  0  0  0
    2.4699    4.1788   22.6278 C   0  0  0  0  0  0
    1.4950    3.0920   22.2066 C   0  0  0  0  0  0
    1.2757    2.8389   20.8368 C   0  0  0  0  0  0
    0.3738    1.8348   20.4430 C   0  0  0  0  0  0
   -0.3088    1.0711   21.4084 C   0  0  0  0  0  0
   -0.0939    1.3211   22.7766 C   0  0  0  0  0  0
   -0.7455    0.5855   23.7090 F   0  0  0  0  0  0
    0.7988    2.3354   23.1743 C   0  0  0  0  0  0
    5.5363    0.5504   21.2524 C   0  0  0  0  0  0
    6.7001    0.1963   20.5281 C   0  0  0  0  0  0
    6.7312    0.2474   19.1227 C   0  0  0  0  0  0
    5.5783    0.6837   18.4519 C   0  0  0  0  0  0
    4.4535    1.0351   19.0958 N   0  0  0  0  0  0
    4.4412    0.9551   20.4410 C   0  0  0  0  0  0
    9.1883    4.0811   22.9335 H   0  0  0  0  0  0
   10.4353    4.4693   24.1231 H   0  0  0  0  0  0
    8.7880    4.1283   24.6702 H   0  0  0  0  0  0
   11.9822    2.6224   24.2070 H   0  0  0  0  0  0
    9.7117   -0.8218   24.1605 H   0  0  0  0  0  0
    7.4680   -0.1873   26.0523 H   0  0  0  0  0  0
    8.1046   -2.3305   26.9926 H   0  0  0  0  0  0
    7.0496   -6.5617   26.3543 H   0  0  0  0  0  0
    6.3784   -5.7624   24.9380 H   0  0  0  0  0  0
    6.1937   -5.0507   26.5352 H   0  0  0  0  0  0
    8.2464   -4.3342   27.8409 H   0  0  0  0  0  0
    9.8183   -4.1656   27.0410 H   0  0  0  0  0  0
    9.1708   -5.7528   27.4302 H   0  0  0  0  0  0
    9.4523   -6.5644   25.2188 H   0  0  0  0  0  0
   10.0650   -5.0546   24.5699 H   0  0  0  0  0  0
    8.6954   -5.8602   23.8100 H   0  0  0  0  0  0
    7.4314   -4.2058   23.1419 H   0  0  0  0  0  0
    6.8130   -2.0471   22.2056 H   0  0  0  0  0  0
    4.9694   -0.5936   22.9061 H   0  0  0  0  0  0
    5.0992    2.9514   22.3481 H   0  0  0  0  0  0
    3.1488    3.3957   24.5407 H   0  0  0  0  0  0
    4.2419    4.5343   23.8031 H   0  0  0  0  0  0
    1.9051    4.9853   23.0962 H   0  0  0  0  0  0
    2.9385    4.6102   21.7404 H   0  0  0  0  0  0
    1.8044    3.4082   20.0841 H   0  0  0  0  0  0
    0.2099    1.6506   19.3942 H   0  0  0  0  0  0
   -0.9983    0.2983   21.1028 H   0  0  0  0  0  0
    0.9572    2.5195   24.2267 H   0  0  0  0  0  0
    7.5748   -0.1612   21.0448 H   0  0  0  0  0  0
    7.6198   -0.0393   18.5810 H   0  0  0  0  0  0
    5.5569    0.7460   17.3742 H   0  0  0  0  0  0
    3.4819    1.1858   20.8762 H   0  0  0  0  0  0
  1  2  1  0  0  0
  1 39  1  0  0  0
  1 40  1  0  0  0
  1 41  1  0  0  0
  2  3  1  0  0  0
  2  6  1  0  0  0
  3  4  2  0  0  0
  3 42  1  0  0  0
  4  5  1  0  0  0
  5  6  2  0  0  0
  5 43  1  0  0  0
  6  7  1  0  0  0
  7  8  2  0  0  0
  7  9  1  0  0  0
  9 10  1  0  0  0
  9 20  1  0  0  0
 10 11  2  0  0  0
 10 19  1  0  0  0
 11 12  1  0  0  0
 11 44  1  0  0  0
 12 13  2  0  0  0
 12 45  1  0  0  0
 13 14  1  0  0  0
 13 18  1  0  0  0
 14 15  1  0  0  0
 14 16  1  0  0  0
 14 17  1  0  0  0
 15 46  1  0  0  0
 15 47  1  0  0  0
 15 48  1  0  0  0
 16 49  1  0  0  0
 16 50  1  0  0  0
 16 51  1  0  0  0
 17 52  1  0  0  0
 17 53  1  0  0  0
 17 54  1  0  0  0
 18 19  2  0  0  0
 18 55  1  0  0  0
 19 56  1  0  0  0
 20 21  1  0  0  0
 20 33  1  0  0  0
 20 57  1  0  0  0
 21 22  2  0  0  0
 21 23  1  0  0  0
 23 24  1  0  0  0
 23 58  1  0  0  0
 24 25  1  0  0  0
 24 59  1  0  0  0
 24 60  1  0  0  0
 25 26  1  0  0  0
 25 61  1  0  0  0
 25 62  1  0  0  0
 26 27  2  0  0  0
 26 32  1  0  0  0
 27 28  1  0  0  0
 27 63  1  0  0  0
 28 29  2  0  0  0
 28 64  1  0  0  0
 29 30  1  0  0  0
 29 65  1  0  0  0
 30 31  1  0  0  0
 30 32  2  0  0  0
 32 66  1  0  0  0
 33 34  2  0  0  0
 33 38  1  0  0  0
 34 35  1  0  0  0
 34 67  1  0  0  0
 35 36  2  0  0  0
 35 68  1  0  0  0
 36 37  1  0  0  0
 36 69  1  0  0  0
 37 38  2  0  0  0
 38 70  1  0  0  0
M  END
> <s_m_entry_id>
2698

> <s_m_entry_name>
Compounds-withfrags-for-validation-docking.1896

> <s_m_Source_Path>
/home/rodolpho/data/melina/maestro/glide-dock_XP_5RGK_M-PRO_VALIDATION

> <s_m_Source_File>
glide-dock_XP_5RGK_M-PRO_VALIDATION_pv.maegz

> <i_m_Source_File_Index>
2698

> <CID>
ALP-POS-02c6a514-22

> <Potency>
99.5

> <pIC50>
4.00218

> <Source>
Postera

> <smiles>
Cn1cncc1C(=O)N(c1ccc(C(C)(C)C)cc1)C(C(=O)NCCc1cccc(F)c1)c1cccnc1

> <Outcome>
Inactive

> <StandardizerResult>
Clear Stereo (ID: ClearStereo)
Wedge Clean (ID: WedgeClean)
Mesomerize (ID: Mesomerize)
Tautomerize (ID: Tautomerize)
Aromatize (ID: Aromatize)
Add Explicit Hydrogens (ID: AddExplicitH)
Neutralize (ID: Neutralize)
Clean 2D (ID: Clean2D)

> <chiral flag>
0

> <version>
0

> <i_lp_mmshare_version>
41011

> <i_f3d_flags>
0

> <s_epik_input>
W0NIM11uMVtjSF1uW2NIXWMxQyg9TylOKGMyW2NIXVtjSF1jKEMoW0NIM10pKFtDSDNdKVtDSDNdKVtjSF1bY0hdMilbQ0BIXShjM1tjSF1bY0hdW2NIXW5bY0hdMylDKD1PKVtOSF1bQ0gyXVtDSDJdYzRbY0hdW2NIXVtjSF1jKEYpW2NIXTQ=

> <s_epik_cmdline>
J2VwaWtfcHl0aG9uJywgJy1waHQnLCAnMC41JywgJy1waCcsICc3LjQnLCAnLXRuJywgJzgnLCAnLW1hJywgJzIwMCcsICctaW1hZScsICc8aW5maWxlLm1hZT4nLCAnLW9tYWUnLCAnPG91dGZpbGUubWFlPic=

> <r_lp_tautomer_probability>
1.0

> <r_epik_Ionization_Penalty>
0.0063

> <r_epik_Ionization_Penalty_Charging>
0.0057

> <r_epik_Ionization_Penalty_Neutral>
6.0E-4

> <r_epik_State_Penalty>
0.0

> <r_epik_Charging_Adjusted_Penalty>
0.00572067

> <i_epik_Tot_Q>
0

> <i_epik_Tot_abs_Q>
0

> <s_lp_Force_Field>
OPLS3

> <r_lp_Energy>
75.2585

> <b_lp_Chiralities_Consistent>
1

> <s_lp_Variant>
ligprep_COVID_compounds-withfrags-smallmolecules-forvalidation.maegz:21-1

> <i_glide_original_lignum>
135

> <s_i_glide_gridfile>
glide-grid_5RGK_M-PRO_COVID

> <i_i_glide_lignum>
135

> <r_i_docking_score>
-3.47150432716828

> <r_i_glide_ligand_efficiency>
-0.0913553770307442

> <r_i_glide_ligand_efficiency_sa>
-0.3071345304838

> <r_i_glide_ligand_efficiency_ln>
-0.74855845424834

> <r_glide_XP_GScore>
-3.47150432716828

> <r_i_glide_gscore>
-3.47150432716828

> <r_i_glide_evdw>
-42.7430191040039

> <r_i_glide_ecoul>
-6.65664339065552

> <r_i_glide_energy>
-49.3996624946594

> <r_i_glide_einternal>
10.900731086731

> <r_i_glide_emodel>
-63.1279954308635

> <r_glide_XP_HBond>
-1.20698350227871

> <i_i_glide_confnum>
1

> <i_i_glide_posenum>
11

> <r_i_glide_eff_state_penalty>
0.0

> <i_glide_XP_PoseRank>
1

> <MW>
513.25

> <TPSA>
80.12

> <Rotatable Bonds>
8

> <Fraction sp3>
0.27

> <HBA>
5

> <HBD>
1

> <cLogP>
5.0

> <s_epik_Chemistry_Notes>


> <Structure ID>


> <Submission Fragments>


$$$$
ligprep_COVID_compounds-withfrags-smallmolecules-forvalidation.maegz:95
                    3D
 Structure written by MMmdl.
 47 50  0  0  1  0            999 V2000
    2.1018    2.1350   20.5187 C   0  0  0  0  0  0
    3.4068    1.6384   21.1078 C   0  0  0  0  0  0
    3.5367    1.4764   22.5033 C   0  0  0  0  0  0
    4.7711    1.0823   23.0559 C   0  0  0  0  0  0
    5.8885    0.8863   22.2186 C   0  0  0  0  0  0
    7.1761    0.6344   22.6837 N   0  0  0  0  0  0
    7.6102    0.1719   23.9152 C   0  0  0  0  0  0
    8.7257    0.5322   24.5622 C   0  0  0  0  0  0
    9.6816    1.5804   24.1708 C   0  0  0  0  0  0
    9.2325    2.8699   23.8100 C   0  0  0  0  0  0
   10.1569    3.8366   23.3707 C   0  0  0  0  0  0
   11.5268    3.5188   23.2918 C   0  0  0  0  0  0
   11.9747    2.2359   23.6610 C   0  0  0  0  0  0
   11.0577    1.2701   24.1139 C   0  0  0  0  0  0
    8.7791   -0.2324   25.7810 C   0  0  0  0  0  0
    9.6280   -0.1644   26.6682 O   0  0  0  0  0  0
    7.7207   -1.0567   25.7530 N   0  0  0  0  0  0
    7.3858   -1.9965   26.8213 C   0  0  0  0  0  0
    7.8660   -3.4177   26.5833 C   0  0  0  0  0  0
    7.3393   -4.4568   27.3704 C   0  0  0  0  0  0
    7.8067   -5.7621   27.1653 C   0  0  0  0  0  0
    8.7775   -5.9786   26.1705 C   0  0  0  0  0  0
    9.2893   -4.9959   25.4022 N   0  0  0  0  0  0
    8.8384   -3.7466   25.6118 C   0  0  0  0  0  0
    6.9834   -0.9083   24.6421 C   0  0  0  0  0  0
    5.9766   -1.5497   24.3519 O   0  0  0  0  0  0
    5.7499    1.0144   20.8328 C   0  0  0  0  0  0
    4.5150    1.3623   20.2783 C   0  0  0  0  0  0
    4.4223    1.4362   18.5707 Cl  0  0  0  0  0  0
    1.7127    1.4361   19.7826 H   0  0  0  0  0  0
    2.2646    3.0922   20.0222 H   0  0  0  0  0  0
    1.3412    2.2776   21.2865 H   0  0  0  0  0  0
    2.6981    1.6709   23.1577 H   0  0  0  0  0  0
    4.8637    0.9743   24.1227 H   0  0  0  0  0  0
    7.8974    1.0203   22.0815 H   0  0  0  0  0  0
    8.1798    3.1131   23.8429 H   0  0  0  0  0  0
    9.8121    4.8164   23.0751 H   0  0  0  0  0  0
   12.2304    4.2594   22.9407 H   0  0  0  0  0  0
   13.0270    1.9956   23.5988 H   0  0  0  0  0  0
   11.4119    0.2874   24.3925 H   0  0  0  0  0  0
    7.7978   -1.6494   27.7706 H   0  0  0  0  0  0
    6.3030   -2.0105   26.9633 H   0  0  0  0  0  0
    6.5969   -4.2560   28.1291 H   0  0  0  0  0  0
    7.4401   -6.5785   27.7690 H   0  0  0  0  0  0
    9.1747   -6.9648   25.9988 H   0  0  0  0  0  0
    9.2867   -2.9932   24.9821 H   0  0  0  0  0  0
    6.5987    0.8529   20.1832 H   0  0  0  0  0  0
  1  2  1  0  0  0
  1 30  1  0  0  0
  1 31  1  0  0  0
  1 32  1  0  0  0
  2  3  2  0  0  0
  2 28  1  0  0  0
  3  4  1  0  0  0
  3 33  1  0  0  0
  4  5  2  0  0  0
  4 34  1  0  0  0
  5  6  1  0  0  0
  5 27  1  0  0  0
  6  7  1  0  0  0
  6 35  1  0  0  0
  7  8  2  0  0  0
  7 25  1  0  0  0
  8  9  1  0  0  0
  8 15  1  0  0  0
  9 10  2  0  0  0
  9 14  1  0  0  0
 10 11  1  0  0  0
 10 36  1  0  0  0
 11 12  2  0  0  0
 11 37  1  0  0  0
 12 13  1  0  0  0
 12 38  1  0  0  0
 13 14  2  0  0  0
 13 39  1  0  0  0
 14 40  1  0  0  0
 15 16  2  0  0  0
 15 17  1  0  0  0
 17 18  1  0  0  0
 17 25  1  0  0  0
 18 19  1  0  0  0
 18 41  1  0  0  0
 18 42  1  0  0  0
 19 20  2  0  0  0
 19 24  1  0  0  0
 20 21  1  0  0  0
 20 43  1  0  0  0
 21 22  2  0  0  0
 21 44  1  0  0  0
 22 23  1  0  0  0
 22 45  1  0  0  0
 23 24  2  0  0  0
 24 46  1  0  0  0
 25 26  2  0  0  0
 27 28  2  0  0  0
 27 47  1  0  0  0
 28 29  1  0  0  0
M  END
> <s_m_entry_id>
2700

> <s_m_entry_name>
Compounds-withfrags-for-validation-docking.1822

> <s_m_Source_Path>
/home/rodolpho/data/melina/maestro/glide-dock_XP_5RGK_M-PRO_VALIDATION

> <s_m_Source_File>
glide-dock_XP_5RGK_M-PRO_VALIDATION_pv.maegz

> <i_m_Source_File_Index>
2700

> <CID>
JAG-UCB-1d922829-3

> <Potency>
99.5

> <pIC50>
4.00218

> <Source>
Postera

> <smiles>
Cc1ccc(NC2=C(c3ccccc3)C(=O)N(Cc3cccnc3)C2=O)cc1Cl

> <Outcome>
Inactive

> <StandardizerResult>
Clear Stereo (ID: ClearStereo)
Wedge Clean (ID: WedgeClean)
Mesomerize (ID: Mesomerize)
Tautomerize (ID: Tautomerize)
Aromatize (ID: Aromatize)
Add Explicit Hydrogens (ID: AddExplicitH)
Neutralize (ID: Neutralize)
Clean 2D (ID: Clean2D)

> <chiral flag>
0

> <version>
0

> <i_lp_mmshare_version>
41011

> <i_f3d_flags>
0

> <s_epik_input>
W0NIM11jMVtjSF1bY0hdYyhbY0hdYzFDbClbTkhdQzI9QyhjM1tjSF1bY0hdW2NIXVtjSF1bY0hdMylDKD1PKU4oQzI9TylbQ0gyXWM0W2NIXVtjSF1bY0hdbltjSF00

> <s_epik_cmdline>
J2VwaWtfcHl0aG9uJywgJy1waHQnLCAnMC41JywgJy1waCcsICc3LjQnLCAnLXRuJywgJzgnLCAnLW1hJywgJzIwMCcsICctaW1hZScsICc8aW5maWxlLm1hZT4nLCAnLW9tYWUnLCAnPG91dGZpbGUubWFlPic=

> <r_lp_tautomer_probability>
1.0

> <r_epik_Ionization_Penalty>
0.0015

> <r_epik_Ionization_Penalty_Charging>
0.0

> <r_epik_Ionization_Penalty_Neutral>
0.0015

> <r_epik_State_Penalty>
0.0

> <r_epik_Charging_Adjusted_Penalty>
0.0

> <i_epik_Tot_Q>
0

> <i_epik_Tot_abs_Q>
0

> <s_lp_Force_Field>
OPLS3

> <r_lp_Energy>
42.7185

> <b_lp_Chiralities_Consistent>
1

> <s_lp_Variant>
ligprep_COVID_compounds-withfrags-smallmolecules-forvalidation.maegz:95-1

> <i_glide_original_lignum>
284

> <s_i_glide_gridfile>
glide-grid_5RGK_M-PRO_COVID

> <i_i_glide_lignum>
284

> <r_i_docking_score>
-3.46995549749505

> <r_i_glide_ligand_efficiency>
-0.119653637844657

> <r_i_glide_ligand_efficiency_sa>
-0.367613884392039

> <r_i_glide_ligand_efficiency_ln>
-0.794531818446977

> <r_glide_XP_GScore>
-3.46995549749505

> <r_i_glide_gscore>
-3.46995549749505

> <r_i_glide_evdw>
-35.2677764892578

> <r_i_glide_ecoul>
-4.15572690963745

> <r_i_glide_energy>
-39.4235033988953

> <r_i_glide_einternal>
0.0

> <r_i_glide_emodel>
-50.4194016055086

> <r_glide_XP_HBond>
-0.909097643021362

> <i_i_glide_confnum>
1

> <i_i_glide_posenum>
1

> <r_i_glide_eff_state_penalty>
0.0

> <i_glide_XP_PoseRank>
1

> <MW>
403.11

> <cLogP>
4.44

> <TPSA>
62.3

> <Rotatable Bonds>
5

> <Fraction sp3>
0.09

> <HBA>
4

> <HBD>
1

> <s_epik_Chemistry_Notes>


> <Structure ID>


> <Submission Fragments>


$$$$
ligprep_COVID_compounds-withfrags-smallmolecules-forvalidation.maegz:75
                    3D
 Structure written by MMmdl.
 58 62  0  0  1  0            999 V2000
    9.3679   -2.1544   24.2554 O   0  0  0  0  0  0
    8.3703   -1.4843   24.5319 C   0  0  0  0  0  0
    8.4099   -0.2268   25.0322 N   0  0  0  0  0  0
    9.4889    0.6178   24.7564 N   0  0  0  0  0  0
   10.7782    0.2361   24.5433 N   0  0  0  0  0  0
   11.4497    1.2799   24.1620 N   0  0  0  0  0  0
   10.5780    2.3589   24.1285 C   0  0  0  0  0  0
   10.7647    3.6966   23.7158 C   0  0  0  0  0  0
    9.6939    4.6147   23.7712 C   0  0  0  0  0  0
    8.4320    4.2135   24.2588 C   0  0  0  0  0  0
    8.2240    2.8825   24.6704 C   0  0  0  0  0  0
    9.2903    1.9708   24.5707 C   0  0  0  0  0  0
    6.9818   -2.0882   24.2327 C   0  0  2  0  0  0
    5.8998   -1.0249   23.8839 C   0  0  0  0  0  0
    6.0511   -0.4140   22.5078 C   0  0  0  0  0  0
    6.2486    0.9710   22.4336 C   0  0  0  0  0  0
    6.3734    1.5860   21.1914 C   0  0  0  0  0  0
    6.2592    0.8542   20.0066 C   0  0  0  0  0  0
    6.0723   -0.5270   20.0634 C   0  0  0  0  0  0
    5.9749   -1.3679   18.5711 Cl  0  0  0  0  0  0
    5.9750   -1.1755   21.3149 C   0  0  0  0  0  0
    6.5897   -3.0564   25.3460 C   0  0  0  0  0  0
    5.8372   -2.6388   26.4660 C   0  0  0  0  0  0
    5.4322   -3.5785   27.4360 C   0  0  0  0  0  0
    5.7846   -4.9412   27.3030 C   0  0  0  0  0  0
    5.3088   -5.9122   28.2247 N   0  0  0  0  0  0
    4.5539   -7.0601   27.7087 C   0  0  0  0  0  0
    3.2421   -7.2390   28.4935 C   0  0  0  0  0  0
    3.4517   -7.2040   30.0215 C   0  0  0  0  0  0
    4.8961   -6.8778   30.4562 C   0  0  0  0  0  0
    5.5804   -5.8558   29.5489 C   0  0  0  0  0  0
    6.3747   -5.0682   30.0529 O   0  0  0  0  0  0
    6.5711   -5.3510   26.2084 C   0  0  0  0  0  0
    6.9681   -4.4149   25.2362 C   0  0  0  0  0  0
    7.5641    0.2904   25.2286 H   0  0  0  0  0  0
   11.7274    4.0139   23.3450 H   0  0  0  0  0  0
    9.8423    5.6341   23.4418 H   0  0  0  0  0  0
    7.6188    4.9235   24.2993 H   0  0  0  0  0  0
    7.2557    2.5716   25.0340 H   0  0  0  0  0  0
    7.1007   -2.7118   23.3454 H   0  0  0  0  0  0
    4.8756   -1.3638   23.9853 H   0  0  0  0  0  0
    5.9191   -0.2026   24.5834 H   0  0  0  0  0  0
    6.3052    1.5786   23.3202 H   0  0  0  0  0  0
    6.5739    2.6359   21.1522 H   0  0  0  0  0  0
    6.3365    1.3526   19.0520 H   0  0  0  0  0  0
    5.8272   -2.2446   21.3560 H   0  0  0  0  0  0
    5.5457   -1.6037   26.5755 H   0  0  0  0  0  0
    4.8321   -3.2540   28.2742 H   0  0  0  0  0  0
    4.3295   -6.9370   26.6488 H   0  0  0  0  0  0
    5.1723   -7.9567   27.7924 H   0  0  0  0  0  0
    2.5587   -6.4352   28.2160 H   0  0  0  0  0  0
    2.7463   -8.1636   28.1972 H   0  0  0  0  0  0
    2.7701   -6.4710   30.4553 H   0  0  0  0  0  0
    3.1615   -8.1622   30.4494 H   0  0  0  0  0  0
    4.9130   -6.5327   31.4904 H   0  0  0  0  0  0
    5.5230   -7.7636   30.4138 H   0  0  0  0  0  0
    6.8641   -6.3884   26.1194 H   0  0  0  0  0  0
    7.5583   -4.7491   24.3950 H   0  0  0  0  0  0
  1  2  2  0  0  0
  2  3  1  0  0  0
  2 13  1  0  0  0
  3  4  1  0  0  0
  3 35  1  0  0  0
  4  5  1  0  0  0
  4 12  1  0  0  0
  5  6  2  0  0  0
  6  7  1  0  0  0
  7  8  2  0  0  0
  7 12  1  0  0  0
  8  9  1  0  0  0
  8 36  1  0  0  0
  9 10  2  0  0  0
  9 37  1  0  0  0
 10 11  1  0  0  0
 10 38  1  0  0  0
 11 12  2  0  0  0
 11 39  1  0  0  0
 13 14  1  0  0  0
 13 22  1  0  0  0
 13 40  1  0  0  0
 14 15  1  0  0  0
 14 41  1  0  0  0
 14 42  1  0  0  0
 15 16  2  0  0  0
 15 21  1  0  0  0
 16 17  1  0  0  0
 16 43  1  0  0  0
 17 18  2  0  0  0
 17 44  1  0  0  0
 18 19  1  0  0  0
 18 45  1  0  0  0
 19 20  1  0  0  0
 19 21  2  0  0  0
 21 46  1  0  0  0
 22 23  2  0  0  0
 22 34  1  0  0  0
 23 24  1  0  0  0
 23 47  1  0  0  0
 24 25  2  0  0  0
 24 48  1  0  0  0
 25 26  1  0  0  0
 25 33  1  0  0  0
 26 27  1  0  0  0
 26 31  1  0  0  0
 27 28  1  0  0  0
 27 49  1  0  0  0
 27 50  1  0  0  0
 28 29  1  0  0  0
 28 51  1  0  0  0
 28 52  1  0  0  0
 29 30  1  0  0  0
 29 53  1  0  0  0
 29 54  1  0  0  0
 30 31  1  0  0  0
 30 55  1  0  0  0
 30 56  1  0  0  0
 31 32  2  0  0  0
 33 34  2  0  0  0
 33 57  1  0  0  0
 34 58  1  0  0  0
M  END
> <s_m_entry_id>
2716

> <s_m_entry_name>
Compounds-withfrags-for-validation-docking.1842

> <s_m_Source_Path>
/home/rodolpho/data/melina/maestro/glide-dock_XP_5RGK_M-PRO_VALIDATION

> <s_m_Source_File>
glide-dock_XP_5RGK_M-PRO_VALIDATION_pv.maegz

> <i_m_Source_File_Index>
2716

> <CID>
ALP-POS-a3de0cb1-13

> <Potency>
50.9205

> <pIC50>
4.29311

> <Source>
Postera

> <smiles>
O=C(Nn1nnc2ccccc21)C(Cc1cccc(Cl)c1)c1ccc(N2CCCCC2=O)cc1

> <Outcome>
Inactive

> <StandardizerResult>
Clear Stereo (ID: ClearStereo)
Wedge Clean (ID: WedgeClean)
Mesomerize (ID: Mesomerize)
Tautomerize (ID: Tautomerize)
Aromatize (ID: Aromatize)
Add Explicit Hydrogens (ID: AddExplicitH)
Neutralize (ID: Neutralize)
Clean 2D (ID: Clean2D)

> <chiral flag>
0

> <version>
0

> <i_lp_mmshare_version>
41011

> <i_f3d_flags>
0

> <s_epik_input>
W2NIXTFbY0hdW2NIXVtjSF1jKGMxMiluKG5uMilbTkhdQyg9TylbQ0BIXShbQ0gyXWMzW2NIXVtjSF1bY0hdYyhDbClbY0hdMyljNFtjSF1bY0hdYyhbY0hdW2NIXTQpTjVbQ0gyXVtDSDJdW0NIMl1bQ0gyXUM1PU8=

> <s_epik_cmdline>
J2VwaWtfcHl0aG9uJywgJy1waHQnLCAnMC41JywgJy1waCcsICc3LjQnLCAnLXRuJywgJzgnLCAnLW1hJywgJzIwMCcsICctaW1hZScsICc8aW5maWxlLm1hZT4nLCAnLW9tYWUnLCAnPG91dGZpbGUubWFlPic=

> <r_lp_tautomer_probability>
1.0

> <r_epik_Ionization_Penalty>
5.0E-4

> <r_epik_Ionization_Penalty_Charging>
0.0

> <r_epik_Ionization_Penalty_Neutral>
5.0E-4

> <r_epik_State_Penalty>
0.0

> <r_epik_Charging_Adjusted_Penalty>
0.0

> <i_epik_Tot_Q>
0

> <i_epik_Tot_abs_Q>
0

> <s_lp_Force_Field>
OPLS3

> <r_lp_Energy>
52.2104

> <b_lp_Chiralities_Consistent>
1

> <s_lp_Variant>
ligprep_COVID_compounds-withfrags-smallmolecules-forvalidation.maegz:75-1

> <i_glide_original_lignum>
250

> <s_i_glide_gridfile>
glide-grid_5RGK_M-PRO_COVID

> <i_i_glide_lignum>
250

> <r_i_docking_score>
-3.45587031394196

> <r_i_glide_ligand_efficiency>
-0.101643244527705

> <r_i_glide_ligand_efficiency_sa>
-0.329284654105026

> <r_i_glide_ligand_efficiency_ln>
-0.763498686228715

> <r_glide_XP_GScore>
-3.45587031394196

> <r_i_glide_gscore>
-3.45587031394196

> <r_i_glide_evdw>
-37.6435203552246

> <r_i_glide_ecoul>
-13.1569576263428

> <r_i_glide_energy>
-50.8004779815674

> <r_i_glide_einternal>
6.72571277618408

> <r_i_glide_emodel>
-57.8425552476375

> <r_glide_XP_HBond>
-0.362057045773703

> <i_i_glide_confnum>
2

> <i_i_glide_posenum>
1

> <r_i_glide_eff_state_penalty>
0.0

> <i_glide_XP_PoseRank>
1

> <MW>
473.16

> <cLogP>
4.7

> <TPSA>
80.12

> <Rotatable Bonds>
6

> <Fraction sp3>
0.23

> <HBA>
5

> <HBD>
1

> <s_epik_Chemistry_Notes>


> <Structure ID>


> <Submission Fragments>


$$$$
ligprep_COVID_compounds-withfrags-smallmolecules-forvalidation.maegz:4
                    3D
 Structure written by MMmdl.
 93 97  0  0  1  0            999 V2000
    6.1015    8.1964   20.3301 C   0  0  0  0  0  0
    4.7435    8.6492   20.8768 C   0  0  0  0  0  0
    4.9526    9.3646   22.2259 C   0  0  0  0  0  0
    4.0854    9.5925   19.8488 C   0  0  0  0  0  0
    3.9585    7.4280   21.0644 N   0  0  0  0  0  0
    2.6880    7.2983   21.4872 C   0  0  0  0  0  0
    1.9538    8.2541   21.7307 O   0  0  0  0  0  0
    2.1639    5.8725   21.7347 C   0  0  1  0  0  0
    1.6358    5.3053   20.3903 C   0  0  0  0  0  0
    1.1440    3.9319   20.5066 N   0  0  0  0  0  0
   -0.0514    3.8235   21.3562 C   0  0  0  0  0  0
   -0.7330    2.4662   21.3361 C   0  0  0  0  0  0
   -1.8994    2.2684   20.5710 C   0  0  0  0  0  0
   -2.5079    0.9996   20.5713 C   0  0  0  0  0  0
   -1.9292   -0.0230   21.3479 C   0  0  0  0  0  0
   -0.8247    0.1576   22.1011 N   0  0  0  0  0  0
   -0.2537    1.3804   22.1006 C   0  0  0  0  0  0
    2.2922    3.1261   20.9159 C   0  0  0  0  0  0
    2.8052    3.5409   22.3064 C   0  0  0  0  0  0
    3.1749    4.9807   22.3938 N   0  3  2  0  0  0
    3.4571    5.4197   23.8023 C   0  0  0  0  0  0
    4.6516    4.7201   24.4918 C   0  0  1  0  0  0
    5.1381    5.4770   25.7592 C   0  0  0  0  0  0
    6.2144    4.7687   26.6422 C   0  0  2  0  0  0
    6.5464    5.5721   27.9212 C   0  0  0  0  0  0
    5.3927    5.6239   28.9059 C   0  0  0  0  0  0
    4.5803    6.7746   28.9957 C   0  0  0  0  0  0
    3.5061    6.8130   29.9065 C   0  0  0  0  0  0
    3.2430    5.7018   30.7319 C   0  0  0  0  0  0
    4.0556    4.5541   30.6493 C   0  0  0  0  0  0
    5.1281    4.5152   29.7373 C   0  0  0  0  0  0
    7.4878    4.4593   25.8408 C   0  0  0  0  0  0
    8.4929    5.1580   25.9574 O   0  0  0  0  0  0
    7.3837    3.4201   24.9988 N   0  0  0  0  0  0
    8.2034    3.0666   23.8424 C   0  0  2  0  0  0
    9.4643    2.3140   24.1705 C   0  0  0  0  0  0
    9.5637    0.9909   24.6314 C   0  0  0  0  0  0
   10.8401    0.3914   24.6350 C   0  0  0  0  0  0
   11.9751    1.1024   24.1708 C   0  0  0  0  0  0
   11.8583    2.4385   23.7373 C   0  0  0  0  0  0
   10.5871    3.0309   23.7707 C   0  0  0  0  0  0
   10.2130    4.4181   23.3410 C   0  0  0  0  0  0
    8.7236    4.2429   22.9597 C   0  0  2  0  0  0
    7.9740    5.4421   22.9711 O   0  0  0  0  0  0
    4.2568    3.4316   24.9139 O   0  0  0  0  0  0
    6.7748    9.0362   20.1701 H   0  0  0  0  0  0
    5.9751    7.6961   19.3716 H   0  0  0  0  0  0
    6.6044    7.5017   21.0049 H   0  0  0  0  0  0
    5.4187    8.7016   22.9577 H   0  0  0  0  0  0
    4.0126    9.7185   22.6518 H   0  0  0  0  0  0
    5.6017   10.2339   22.1137 H   0  0  0  0  0  0
    4.7309   10.4455   19.6326 H   0  0  0  0  0  0
    3.1366    9.9939   20.2064 H   0  0  0  0  0  0
    3.8943    9.0811   18.9032 H   0  0  0  0  0  0
    4.4520    6.5749   20.8313 H   0  0  0  0  0  0
    1.3193    5.9710   22.4180 H   0  0  0  0  0  0
    0.8338    5.9383   20.0050 H   0  0  0  0  0  0
    2.4218    5.3325   19.6324 H   0  0  0  0  0  0
    0.1559    4.0830   22.3935 H   0  0  0  0  0  0
   -0.7776    4.5592   21.0093 H   0  0  0  0  0  0
   -2.3156    3.0724   19.9804 H   0  0  0  0  0  0
   -3.3953    0.8132   19.9863 H   0  0  0  0  0  0
   -2.3652   -1.0108   21.3644 H   0  0  0  0  0  0
    0.6204    1.4865   22.7262 H   0  0  0  0  0  0
    2.0326    2.0678   20.9056 H   0  0  0  0  0  0
    3.0968    3.2280   20.1840 H   0  0  0  0  0  0
    2.0819    3.2867   23.0812 H   0  0  0  0  0  0
    3.6950    2.9418   22.4936 H   0  0  0  0  0  0
    3.6895    6.4850   23.8001 H   0  0  0  0  0  0
    2.5577    5.3198   24.4114 H   0  0  0  0  0  0
    5.4625    4.6382   23.7708 H   0  0  0  0  0  0
    5.5173    6.4551   25.4599 H   0  0  0  0  0  0
    4.2648    5.6770   26.3792 H   0  0  0  0  0  0
    5.8203    3.8076   26.9714 H   0  0  0  0  0  0
    7.4041    5.1351   28.4362 H   0  0  0  0  0  0
    6.8447    6.5877   27.6597 H   0  0  0  0  0  0
    4.7760    7.6305   28.3652 H   0  0  0  0  0  0
    2.8822    7.6930   29.9718 H   0  0  0  0  0  0
    2.4206    5.7308   31.4312 H   0  0  0  0  0  0
    3.8566    3.7034   31.2849 H   0  0  0  0  0  0
    5.7481    3.6315   29.6770 H   0  0  0  0  0  0
    6.5279    2.8915   25.0885 H   0  0  0  0  0  0
    7.5789    2.4204   23.2237 H   0  0  0  0  0  0
    8.6842    0.4365   24.9252 H   0  0  0  0  0  0
   10.9430   -0.6275   24.9704 H   0  0  0  0  0  0
   12.9485    0.6363   24.1558 H   0  0  0  0  0  0
   12.7204    2.9850   23.3823 H   0  0  0  0  0  0
   10.3210    5.0790   24.2003 H   0  0  0  0  0  0
   10.8615    4.8121   22.5706 H   0  0  0  0  0  0
    8.7001    3.8535   21.9393 H   0  0  0  0  0  0
    7.1642    5.2712   22.4972 H   0  0  0  0  0  0
    4.0750    2.9078   24.1491 H   0  0  0  0  0  0
    4.0535    5.0366   21.8730 H   0  0  0  0  0  0
  1  2  1  0  0  0
  1 46  1  0  0  0
  1 47  1  0  0  0
  1 48  1  0  0  0
  2  3  1  0  0  0
  2  4  1  0  0  0
  2  5  1  0  0  0
  3 49  1  0  0  0
  3 50  1  0  0  0
  3 51  1  0  0  0
  4 52  1  0  0  0
  4 53  1  0  0  0
  4 54  1  0  0  0
  5  6  1  0  0  0
  5 55  1  0  0  0
  6  7  2  0  0  0
  6  8  1  0  0  0
  8  9  1  0  0  0
  8 20  1  0  0  0
  8 56  1  0  0  0
  9 10  1  0  0  0
  9 57  1  0  0  0
  9 58  1  0  0  0
 10 11  1  0  0  0
 10 18  1  0  0  0
 11 12  1  0  0  0
 11 59  1  0  0  0
 11 60  1  0  0  0
 12 13  2  0  0  0
 12 17  1  0  0  0
 13 14  1  0  0  0
 13 61  1  0  0  0
 14 15  2  0  0  0
 14 62  1  0  0  0
 15 16  1  0  0  0
 15 63  1  0  0  0
 16 17  2  0  0  0
 17 64  1  0  0  0
 18 19  1  0  0  0
 18 65  1  0  0  0
 18 66  1  0  0  0
 19 20  1  0  0  0
 19 67  1  0  0  0
 19 68  1  0  0  0
 20 21  1  0  0  0
 20 93  1  0  0  0
 21 22  1  0  0  0
 21 69  1  0  0  0
 21 70  1  0  0  0
 22 23  1  0  0  0
 22 45  1  0  0  0
 22 71  1  0  0  0
 23 24  1  0  0  0
 23 72  1  0  0  0
 23 73  1  0  0  0
 24 25  1  0  0  0
 24 32  1  0  0  0
 24 74  1  0  0  0
 25 26  1  0  0  0
 25 75  1  0  0  0
 25 76  1  0  0  0
 26 27  2  0  0  0
 26 31  1  0  0  0
 27 28  1  0  0  0
 27 77  1  0  0  0
 28 29  2  0  0  0
 28 78  1  0  0  0
 29 30  1  0  0  0
 29 79  1  0  0  0
 30 31  2  0  0  0
 30 80  1  0  0  0
 31 81  1  0  0  0
 32 33  2  0  0  0
 32 34  1  0  0  0
 34 35  1  0  0  0
 34 82  1  0  0  0
 35 36  1  0  0  0
 35 43  1  0  0  0
 35 83  1  0  0  0
 36 37  2  0  0  0
 36 41  1  0  0  0
 37 38  1  0  0  0
 37 84  1  0  0  0
 38 39  2  0  0  0
 38 85  1  0  0  0
 39 40  1  0  0  0
 39 86  1  0  0  0
 40 41  2  0  0  0
 40 87  1  0  0  0
 41 42  1  0  0  0
 42 43  1  0  0  0
 42 88  1  0  0  0
 42 89  1  0  0  0
 43 44  1  0  0  0
 43 90  1  0  0  0
 44 91  1  0  0  0
 45 92  1  0  0  0
M  CHG  1  20   1
M  END
> <s_m_entry_id>
2728

> <s_m_entry_name>
Compounds-withfrags-for-validation-docking.1913

> <s_m_Source_Path>
/home/rodolpho/data/melina/maestro/glide-dock_XP_5RGK_M-PRO_VALIDATION

> <s_m_Source_File>
glide-dock_XP_5RGK_M-PRO_VALIDATION_pv.maegz

> <i_m_Source_File_Index>
2728

> <CID>
Indinavir

> <Potency>
43.13

> <pIC50>
4.36522

> <Source>
https://doi.org/10.1101/2020.03.23.004580

> <smiles>
C(C(C([H])([H])[H])(C([H])([H])[H])N(C(=O)C1(C([H])([H])N(C(C2=C([H])C([H])=C([H])N=C2[H])([H])[H])C([H])([H])C([H])([H])N1C(C(C(C(C(C1=C([H])C([H])=C([H])C([H])=C1[H])([H])[H])(C(=O)N(C1(C2=C(C(=C(C([H])=C2C([H])([H])C1(O[H])[H])[H])[H])[H])[H])[H])[H])([H])[H])(O[H])[H])([H])[H])[H])[H])([H])([H])[H]

> <Outcome>
Inactive

> <StandardizerResult>
Clear Stereo (ID: ClearStereo)
Wedge Clean (ID: WedgeClean)
Mesomerize (ID: Mesomerize)
Tautomerize (ID: Tautomerize)
Aromatize (ID: Aromatize)
Add Explicit Hydrogens (ID: AddExplicitH)
Neutralize (ID: Neutralize)
Clean 2D (ID: Clean2D)

> <chiral flag>
0

> <version>
0

> <i_lp_mmshare_version>
41011

> <i_f3d_flags>
0

> <s_epik_input>
W2NIXTFuW2NIXVtjSF1bY0hdYzFbQ0gyXU4oW0NIMl1bQ0BASF0yQyg9TylbTkhdQyhbQ0gzXSkoW0NIM10pW0NIM10pW0NIMl1bQ0gyXU4yW0NIMl1bQ0BIXShbT0hdKVtDSDJdW0NASF0oW0NIMl1jM1tjSF1bY0hdW2NIXVtjSF1bY0hdMylDKD1PKVtOSF1bQ0BIXTRbQ0BASF0oW09IXSlbQ0gyXWMoYzQ1KVtjSF1bY0hdW2NIXVtjSF01

> <s_epik_cmdline>
J2VwaWtfcHl0aG9uJywgJy1waHQnLCAnMC41JywgJy1waCcsICc3LjQnLCAnLXRuJywgJzgnLCAnLW1hJywgJzIwMCcsICctaW1hZScsICc8aW5maWxlLm1hZT4nLCAnLW9tYWUnLCAnPG91dGZpbGUubWFlPic=

> <r_epik_Ionization_Penalty>
0.3395

> <r_epik_Ionization_Penalty_Charging>
0.3352

> <r_epik_Ionization_Penalty_Neutral>
0.0044

> <r_epik_State_Penalty>
0.5191

> <r_epik_Charging_Adjusted_Penalty>
0.854238

> <i_epik_Tot_Q>
1

> <i_epik_Tot_abs_Q>
1

> <s_lp_Force_Field>
OPLS3

> <r_lp_Energy>
54.1012

> <b_lp_Chiralities_Consistent>
1

> <s_lp_Variant>
ligprep_COVID_compounds-withfrags-smallmolecules-forvalidation.maegz:4-13

> <i_glide_original_lignum>
32

> <s_i_glide_gridfile>
glide-grid_5RGK_M-PRO_COVID

> <i_i_glide_lignum>
32

> <r_i_docking_score>
-3.44461346402757

> <r_i_glide_ligand_efficiency>
-0.0765469658672794

> <r_i_glide_ligand_efficiency_sa>
-0.272269390026876

> <r_i_glide_ligand_efficiency_ln>
-0.716633104853628

> <r_glide_XP_GScore>
-3.96368546402757

> <r_i_glide_gscore>
-3.96368546402757

> <r_i_glide_evdw>
-30.7626266479492

> <r_i_glide_ecoul>
-16.3647193908691

> <r_i_glide_energy>
-47.1273460388184

> <r_i_glide_einternal>
9.3856725692749

> <r_i_glide_emodel>
-67.362077407197

> <r_glide_XP_HBond>
-2.04064935135879

> <i_i_glide_confnum>
1

> <i_i_glide_posenum>
3

> <r_i_glide_eff_state_penalty>
0.519072

> <i_glide_XP_PoseRank>
1

> <r_lp_tautomer_probability>


> <s_epik_Chemistry_Notes>


> <MW>


> <cLogP>


> <TPSA>


> <Rotatable Bonds>


> <Fraction sp3>


> <HBA>


> <HBD>


> <Structure ID>


> <Submission Fragments>


$$$$
ligprep_COVID_compounds-withfrags-smallmolecules-forvalidation.maegz:6
                    3D
 Structure written by MMmdl.
 56 59  0  0  1  0            999 V2000
    2.0630    3.2740   19.2391 C   0  0  0  0  0  0
    2.5191    2.5049   20.5080 C   0  0  1  0  0  0
    3.8042    1.6783   20.3359 C   0  0  0  0  0  0
    4.3718    1.4363   19.0617 C   0  0  0  0  0  0
    5.5180    0.6389   18.9149 C   0  0  0  0  0  0
    6.1384    0.0973   20.0496 C   0  0  0  0  0  0
    5.6179    0.3537   21.3319 C   0  0  0  0  0  0
    6.3050   -0.1641   22.3948 O   0  0  0  0  0  0
    4.4396    1.1408   21.4891 C   0  0  0  0  0  0
    3.8788    1.4516   22.8453 C   0  0  0  0  0  0
    3.9762    0.6415   23.7698 O   0  0  0  0  0  0
    3.1698    2.7626   23.0081 C   0  0  0  0  0  0
    2.7213    3.4668   21.7159 C   0  0  2  0  0  0
    1.5585    4.4652   21.9690 C   0  0  2  0  0  0
    1.8977    5.3692   23.1661 C   0  0  1  0  0  0
    1.0603    6.6588   23.3315 C   0  0  1  0  0  0
   -0.3746    6.3223   23.5217 N   0  0  0  0  0  0
   -1.1547    6.7087   22.3497 C   0  0  0  0  0  0
   -1.0364    6.8568   24.7124 C   0  0  0  0  0  0
    1.6826    7.5816   24.4111 C   0  0  0  0  0  0
    1.2887    8.7473   24.1468 O   0  5  0  0  0  0
    2.5708    7.0631   25.3836 C   0  0  0  0  0  0
    3.1804    7.9523   26.4035 C   0  0  0  0  0  0
    2.9746    9.2547   26.2141 N   0  0  0  0  0  0
    3.8405    7.6018   27.3816 O   0  0  0  0  0  0
    2.9409    5.6043   25.4068 C   0  0  0  0  0  0
    3.8224    5.1475   26.1389 O   0  0  0  0  0  0
    2.1559    4.6218   24.4957 C   0  0  2  0  0  0
    2.8680    3.2750   24.2340 C   0  0  0  0  0  0
    3.0894    2.6364   25.3967 O   0  0  0  0  0  0
    0.9306    4.3355   25.1442 O   0  0  0  0  0  0
    0.3281    3.7939   22.1884 O   0  0  0  0  0  0
    1.4289    1.6528   20.8167 O   0  0  0  0  0  0
    2.7728    4.0387   18.9417 H   0  0  0  0  0  0
    1.1028    3.7676   19.3811 H   0  0  0  0  0  0
    1.9279    2.6363   18.3760 H   0  0  0  0  0  0
    3.9400    1.8570   18.1710 H   0  0  0  0  0  0
    5.9211    0.4511   17.9316 H   0  0  0  0  0  0
    7.0305   -0.5017   19.9312 H   0  0  0  0  0  0
    7.0750   -0.6498   22.1389 H   0  0  0  0  0  0
    3.5735    4.0831   21.4424 H   0  0  0  0  0  0
    1.4363    5.1125   21.1007 H   0  0  0  0  0  0
    2.8745    5.7627   22.8702 H   0  0  0  0  0  0
    1.1537    7.1809   22.3742 H   0  0  0  0  0  0
   -2.1895    6.3745   22.4439 H   0  0  0  0  0  0
   -0.7489    6.2623   21.4421 H   0  0  0  0  0  0
   -1.1554    7.7924   22.2234 H   0  0  0  0  0  0
   -2.0405    6.4405   24.8025 H   0  0  0  0  0  0
   -1.1300    7.9417   24.6699 H   0  0  0  0  0  0
   -0.4972    6.5995   25.6241 H   0  0  0  0  0  0
    2.3919    9.5000   25.4124 H   0  0  0  0  0  0
    3.3500    9.9381   26.8498 H   0  0  0  0  0  0
    2.7664    3.2101   26.0774 H   0  0  0  0  0  0
    0.3184    5.0078   24.8718 H   0  0  0  0  0  0
   -0.2547    4.4196   22.6047 H   0  0  0  0  0  0
    0.7739    2.2070   21.2331 H   0  0  0  0  0  0
  1  2  1  0  0  0
  1 34  1  0  0  0
  1 35  1  0  0  0
  1 36  1  0  0  0
  2  3  1  0  0  0
  2 33  1  0  0  0
  2 13  1  0  0  0
  3  4  2  0  0  0
  3  9  1  0  0  0
  4  5  1  0  0  0
  4 37  1  0  0  0
  5  6  2  0  0  0
  5 38  1  0  0  0
  6  7  1  0  0  0
  6 39  1  0  0  0
  7  8  1  0  0  0
  7  9  2  0  0  0
  8 40  1  0  0  0
  9 10  1  0  0  0
 10 11  2  0  0  0
 10 12  1  0  0  0
 12 13  1  0  0  0
 12 29  2  0  0  0
 13 14  1  0  0  0
 13 41  1  0  0  0
 14 15  1  0  0  0
 14 32  1  0  0  0
 14 42  1  0  0  0
 15 16  1  0  0  0
 15 28  1  0  0  0
 15 43  1  0  0  0
 16 17  1  0  0  0
 16 20  1  0  0  0
 16 44  1  0  0  0
 17 18  1  0  0  0
 17 19  1  0  0  0
 18 45  1  0  0  0
 18 46  1  0  0  0
 18 47  1  0  0  0
 19 48  1  0  0  0
 19 49  1  0  0  0
 19 50  1  0  0  0
 20 21  1  0  0  0
 20 22  2  0  0  0
 22 23  1  0  0  0
 22 26  1  0  0  0
 23 24  1  0  0  0
 23 25  2  0  0  0
 24 51  1  0  0  0
 24 52  1  0  0  0
 26 27  2  0  0  0
 26 28  1  0  0  0
 28 29  1  0  0  0
 28 31  1  0  0  0
 29 30  1  0  0  0
 30 53  1  0  0  0
 31 54  1  0  0  0
 32 55  1  0  0  0
 33 56  1  0  0  0
M  CHG  1  21  -1
M  END
> <s_m_entry_id>
2762

> <s_m_entry_name>
Compounds-withfrags-for-validation-docking.1911

> <s_m_Source_Path>
/home/rodolpho/data/melina/maestro/glide-dock_XP_5RGK_M-PRO_VALIDATION

> <s_m_Source_File>
glide-dock_XP_5RGK_M-PRO_VALIDATION_pv.maegz

> <i_m_Source_File_Index>
2762

> <CID>
Oxitetracyclin

> <Potency>
15.15

> <pIC50>
4.81959

> <Source>
https://doi.org/10.1101/2020.03.23.004580

> <smiles>
C(C1(C2=C(C(=C(C(O[H])=C2C(O[H])=C2C1(C(C1(C(N(C([H])([H])[H])C([H])([H])[H])([H])C(=O)C(=C(N([H])[H])O[H])C(=O)C1(C2=O)O[H])[H])(O[H])[H])[H])[H])[H])[H])O[H])([H])([H])[H]

> <Outcome>
Inactive

> <StandardizerResult>
Clear Stereo (ID: ClearStereo)
Wedge Clean (ID: WedgeClean)
Mesomerize (ID: Mesomerize)
Tautomerize (ID: Tautomerize)
Aromatize (ID: Aromatize)
Add Explicit Hydrogens (ID: AddExplicitH)
Neutralize (ID: Neutralize)
Clean 2D (ID: Clean2D)

> <chiral flag>
0

> <version>
0

> <i_lp_mmshare_version>
41011

> <i_f3d_flags>
0

> <s_epik_input>
W09IXWMxW2NIXVtjSF1bY0hdYyhbQ0BAXTIoW0NIM10pW09IXSljMUMoPU8pQyg9QzNbT0hdKVtDQEBIXTJbQ0BASF0oW09IXSlbQ0BIXShbQ0BAXTM0W09IXSlbQ0BASF0oTihbQ0gzXSlbQ0gzXSlDKD1PKVtDQEhdKEM0PU8pQyg9TylbTkgyXQ==

> <s_epik_cmdline>
J2VwaWtfcHl0aG9uJywgJy1waHQnLCAnMC41JywgJy1waCcsICc3LjQnLCAnLXRuJywgJzgnLCAnLW1hJywgJzIwMCcsICctaW1hZScsICc8aW5maWxlLm1hZT4nLCAnLW9tYWUnLCAnPG91dGZpbGUubWFlPic=

> <r_epik_Ionization_Penalty>
0.3646

> <r_epik_Ionization_Penalty_Charging>
0.0013

> <r_epik_Ionization_Penalty_Neutral>
0.3633

> <r_epik_State_Penalty>
0.3215

> <r_epik_Charging_Adjusted_Penalty>
0.322822

> <i_epik_Tot_Q>
-1

> <i_epik_Tot_abs_Q>
1

> <s_lp_Force_Field>
OPLS3

> <r_lp_Energy>
59.0447

> <b_lp_Chiralities_Consistent>
1

> <s_lp_Variant>
ligprep_COVID_compounds-withfrags-smallmolecules-forvalidation.maegz:6-2

> <i_glide_original_lignum>
54

> <s_i_glide_gridfile>
glide-grid_5RGK_M-PRO_COVID

> <i_i_glide_lignum>
54

> <r_i_docking_score>
-3.41797274530461

> <r_i_glide_ligand_efficiency>
-0.103574931675897

> <r_i_glide_ligand_efficiency_sa>
-0.33222014869021

> <r_i_glide_ligand_efficiency_ln>
-0.760139441240011

> <r_glide_XP_GScore>
-3.73946974530461

> <r_i_glide_gscore>
-3.73946974530461

> <r_i_glide_evdw>
-18.9051246643066

> <r_i_glide_ecoul>
-7.57214879989624

> <r_i_glide_energy>
-26.4772734642029

> <r_i_glide_einternal>
0.0

> <r_i_glide_emodel>
-30.5690626875661

> <r_glide_XP_HBond>
-1.44

> <i_i_glide_confnum>
1

> <i_i_glide_posenum>
12

> <r_i_glide_eff_state_penalty>
0.321497

> <i_glide_XP_PoseRank>
1

> <r_lp_tautomer_probability>


> <s_epik_Chemistry_Notes>


> <MW>


> <cLogP>


> <TPSA>


> <Rotatable Bonds>


> <Fraction sp3>


> <HBA>


> <HBD>


> <Structure ID>


> <Submission Fragments>


$$$$
ligprep_COVID_compounds-withfrags-smallmolecules-forvalidation.maegz:6
                    3D
 Structure written by MMmdl.
 57 60  0  0  1  0            999 V2000
    2.0223    3.3099   19.2147 C   0  0  0  0  0  0
    2.4685    2.5686   20.5020 C   0  0  1  0  0  0
    3.7452    1.7265   20.3379 C   0  0  0  0  0  0
    4.2855    1.4361   19.0635 C   0  0  0  0  0  0
    5.4297    0.6362   18.9187 C   0  0  0  0  0  0
    6.0736    0.1323   20.0571 C   0  0  0  0  0  0
    5.5785    0.4312   21.3404 C   0  0  0  0  0  0
    6.2838   -0.0557   22.4059 O   0  0  0  0  0  0
    4.4054    1.2270   21.4935 C   0  0  0  0  0  0
    3.8681    1.5775   22.8468 C   0  0  0  0  0  0
    3.9752    0.7892   23.7874 O   0  0  0  0  0  0
    3.1464    2.8843   22.9840 C   0  0  0  0  0  0
    2.6963    3.5585   21.6811 C   0  0  2  0  0  0
    1.5954    4.6353   21.9080 C   0  0  2  0  0  0
    1.9132    5.5647   23.1182 C   0  0  2  0  0  0
    3.1560    6.4800   22.8408 C   0  0  1  0  0  0
    2.9468    7.4711   21.7306 N   0  3  0  0  0  0
    1.6170    8.1159   21.6243 C   0  0  0  0  0  0
    3.5769    7.1452   20.4319 C   0  0  0  0  0  0
    3.6908    7.2430   24.0842 C   0  0  0  0  0  0
    4.3503    8.2363   23.6712 O   0  5  0  0  0  0
    3.3921    6.7969   25.3830 C   0  0  0  0  0  0
    3.8760    7.5389   26.5787 C   0  0  0  0  0  0
    4.6959    8.5580   26.3289 N   0  0  0  0  0  0
    3.5971    7.3026   27.7529 O   0  0  0  0  0  0
    2.5868    5.5584   25.6085 C   0  0  0  0  0  0
    2.3362    5.1197   26.7358 O   0  0  0  0  0  0
    2.0463    4.7221   24.4178 C   0  0  2  0  0  0
    2.8381    3.4158   24.1973 C   0  0  0  0  0  0
    3.1636    2.8501   25.3743 O   0  0  0  0  0  0
    0.7291    4.3268   24.7685 O   0  0  0  0  0  0
    0.3136    4.0380   22.0551 O   0  0  0  0  0  0
    1.3730    1.7362   20.8381 O   0  0  0  0  0  0
    2.7740    4.0135   18.8656 H   0  0  0  0  0  0
    1.0935    3.8617   19.3504 H   0  0  0  0  0  0
    1.8312    2.6363   18.3892 H   0  0  0  0  0  0
    3.8280    1.8181   18.1707 H   0  0  0  0  0  0
    5.8117    0.4139   17.9340 H   0  0  0  0  0  0
    6.9608   -0.4738   19.9411 H   0  0  0  0  0  0
    7.0457   -0.5553   22.1521 H   0  0  0  0  0  0
    3.5748    4.1126   21.3707 H   0  0  0  0  0  0
    1.5096    5.2488   21.0166 H   0  0  0  0  0  0
    1.0597    6.2240   23.2785 H   0  0  0  0  0  0
    3.9860    5.8388   22.5496 H   0  0  0  0  0  0
    0.8695    7.4459   21.2003 H   0  0  0  0  0  0
    1.6757    8.9962   20.9831 H   0  0  0  0  0  0
    1.2728    8.4524   22.6031 H   0  0  0  0  0  0
    3.1758    6.2363   19.9888 H   0  0  0  0  0  0
    4.6535    7.0361   20.5622 H   0  0  0  0  0  0
    3.4317    7.9556   19.7182 H   0  0  0  0  0  0
    4.8895    8.7427   25.3443 H   0  0  0  0  0  0
    5.0858    9.1109   27.0756 H   0  0  0  0  0  0
    2.7843    3.3949   26.0549 H   0  0  0  0  0  0
    0.3696    3.8646   24.0221 H   0  0  0  0  0  0
   -0.3466    4.7149   21.9912 H   0  0  0  0  0  0
    0.6987    2.3069   21.1902 H   0  0  0  0  0  0
    3.5501    8.1961   22.1206 H   0  0  0  0  0  0
  1  2  1  0  0  0
  1 34  1  0  0  0
  1 35  1  0  0  0
  1 36  1  0  0  0
  2  3  1  0  0  0
  2 33  1  0  0  0
  2 13  1  0  0  0
  3  4  2  0  0  0
  3  9  1  0  0  0
  4  5  1  0  0  0
  4 37  1  0  0  0
  5  6  2  0  0  0
  5 38  1  0  0  0
  6  7  1  0  0  0
  6 39  1  0  0  0
  7  8  1  0  0  0
  7  9  2  0  0  0
  8 40  1  0  0  0
  9 10  1  0  0  0
 10 11  2  0  0  0
 10 12  1  0  0  0
 12 13  1  0  0  0
 12 29  2  0  0  0
 13 14  1  0  0  0
 13 41  1  0  0  0
 14 15  1  0  0  0
 14 32  1  0  0  0
 14 42  1  0  0  0
 15 16  1  0  0  0
 15 28  1  0  0  0
 15 43  1  0  0  0
 16 17  1  0  0  0
 16 20  1  0  0  0
 16 44  1  0  0  0
 17 18  1  0  0  0
 17 19  1  0  0  0
 17 57  1  0  0  0
 18 45  1  0  0  0
 18 46  1  0  0  0
 18 47  1  0  0  0
 19 48  1  0  0  0
 19 49  1  0  0  0
 19 50  1  0  0  0
 20 21  1  0  0  0
 20 22  2  0  0  0
 22 23  1  0  0  0
 22 26  1  0  0  0
 23 24  1  0  0  0
 23 25  2  0  0  0
 24 51  1  0  0  0
 24 52  1  0  0  0
 26 27  2  0  0  0
 26 28  1  0  0  0
 28 29  1  0  0  0
 28 31  1  0  0  0
 29 30  1  0  0  0
 30 53  1  0  0  0
 31 54  1  0  0  0
 32 55  1  0  0  0
 33 56  1  0  0  0
M  CHG  2  17   1  21  -1
M  END
> <s_m_entry_id>
2771

> <s_m_entry_name>
Compounds-withfrags-for-validation-docking.1911

> <s_m_Source_Path>
/home/rodolpho/data/melina/maestro/glide-dock_XP_5RGK_M-PRO_VALIDATION

> <s_m_Source_File>
glide-dock_XP_5RGK_M-PRO_VALIDATION_pv.maegz

> <i_m_Source_File_Index>
2771

> <CID>
Oxitetracyclin

> <Potency>
15.15

> <pIC50>
4.81959

> <Source>
https://doi.org/10.1101/2020.03.23.004580

> <smiles>
C(C1(C2=C(C(=C(C(O[H])=C2C(O[H])=C2C1(C(C1(C(N(C([H])([H])[H])C([H])([H])[H])([H])C(=O)C(=C(N([H])[H])O[H])C(=O)C1(C2=O)O[H])[H])(O[H])[H])[H])[H])[H])[H])O[H])([H])([H])[H]

> <Outcome>
Inactive

> <StandardizerResult>
Clear Stereo (ID: ClearStereo)
Wedge Clean (ID: WedgeClean)
Mesomerize (ID: Mesomerize)
Tautomerize (ID: Tautomerize)
Aromatize (ID: Aromatize)
Add Explicit Hydrogens (ID: AddExplicitH)
Neutralize (ID: Neutralize)
Clean 2D (ID: Clean2D)

> <chiral flag>
0

> <version>
0

> <i_lp_mmshare_version>
41011

> <i_f3d_flags>
0

> <s_epik_input>
W09IXWMxW2NIXVtjSF1bY0hdYyhbQ0BAXTIoW0NIM10pW09IXSljMUMoPU8pQyg9QzNbT0hdKVtDQEBIXTJbQ0BASF0oW09IXSlbQ0BASF0oW0NAQF0zNFtPSF0pW0NAQEhdKE4oW0NIM10pW0NIM10pQyg9TylbQ0BIXShDND1PKUMoPU8pW05IMl0=

> <s_epik_cmdline>
J2VwaWtfcHl0aG9uJywgJy1waHQnLCAnMC41JywgJy1waCcsICc3LjQnLCAnLXRuJywgJzgnLCAnLW1hJywgJzIwMCcsICctaW1hZScsICc8aW5maWxlLm1hZT4nLCAnLW9tYWUnLCAnPG91dGZpbGUubWFlPic=

> <r_epik_Ionization_Penalty>
0.6144

> <r_epik_Ionization_Penalty_Charging>
0.5087

> <r_epik_Ionization_Penalty_Neutral>
0.1057

> <r_epik_State_Penalty>
0.5157

> <r_epik_Charging_Adjusted_Penalty>
1.02439

> <i_epik_Tot_Q>
0

> <i_epik_Tot_abs_Q>
2

> <s_lp_Force_Field>
OPLS3

> <r_lp_Energy>
55.9134

> <b_lp_Chiralities_Consistent>
1

> <s_lp_Variant>
ligprep_COVID_compounds-withfrags-smallmolecules-forvalidation.maegz:6-33

> <i_glide_original_lignum>
85

> <s_i_glide_gridfile>
glide-grid_5RGK_M-PRO_COVID

> <i_i_glide_lignum>
85

> <r_i_docking_score>
-3.41274988691852

> <r_i_glide_ligand_efficiency>
-0.103416663239955

> <r_i_glide_ligand_efficiency_sa>
-0.331712497249162

> <r_i_glide_ligand_efficiency_ln>
-0.758977904577458

> <r_glide_XP_GScore>
-3.92845688691852

> <r_i_glide_gscore>
-3.92845688691852

> <r_i_glide_evdw>
-19.976879119873

> <r_i_glide_ecoul>
-10.8904571533203

> <r_i_glide_energy>
-30.8673362731934

> <r_i_glide_einternal>
5.25170421600342

> <r_i_glide_emodel>
-33.3345586471213

> <r_glide_XP_HBond>
-1.44127572455808

> <i_i_glide_confnum>
1

> <i_i_glide_posenum>
6

> <r_i_glide_eff_state_penalty>
0.515707

> <i_glide_XP_PoseRank>
1

> <r_lp_tautomer_probability>


> <s_epik_Chemistry_Notes>


> <MW>


> <cLogP>


> <TPSA>


> <Rotatable Bonds>


> <Fraction sp3>


> <HBA>


> <HBD>


> <Structure ID>


> <Submission Fragments>


$$$$
ligprep_COVID_compounds-withfrags-smallmolecules-forvalidation.maegz:11
                    3D
 Structure written by MMmdl.
 61 64  0  0  1  0            999 V2000
   10.4776   -4.5341   24.8309 C   0  0  0  0  0  0
    9.1518   -4.5836   25.5956 C   0  0  0  0  0  0
    8.4768   -5.9441   25.3409 C   0  0  0  0  0  0
    9.4215   -4.5139   27.1081 C   0  0  0  0  0  0
    8.2940   -3.4194   25.0776 C   0  0  0  0  0  0
    8.1945   -2.1883   25.7737 C   0  0  0  0  0  0
    7.4259   -1.1293   25.2535 C   0  0  0  0  0  0
    6.7148   -1.2971   24.0475 C   0  0  0  0  0  0
    5.8632   -0.2714   23.5511 N   0  0  0  0  0  0
    4.5431   -0.1638   23.9065 C   0  0  0  0  0  0
    3.7771    0.6361   23.3685 O   0  0  0  0  0  0
    3.9753   -0.9637   25.0467 C   0  0  0  0  0  0
    2.7980   -0.7599   25.7254 C   0  0  0  0  0  0
    2.7210   -1.7501   26.7446 C   0  0  0  0  0  0
    3.8561   -2.4961   26.6233 C   0  0  0  0  0  0
    4.6202   -2.0371   25.5983 O   0  0  0  0  0  0
    6.5410    0.6854   22.6465 C   0  0  2  0  0  0
    6.5999    2.1499   23.1708 C   0  0  0  0  0  0
    5.6451    2.6371   23.7722 O   0  0  0  0  0  0
    7.7577    2.8062   22.9703 N   0  0  0  0  0  0
    8.2123    4.0449   23.5119 C   0  0  0  0  0  0
    9.5865    4.3381   23.3713 C   0  0  0  0  0  0
   10.1281    5.5326   23.8809 C   0  0  0  0  0  0
    9.2977    6.4529   24.5468 C   0  0  0  0  0  0
    7.9243    6.1804   24.6859 C   0  0  0  0  0  0
    7.3816    4.9873   24.1691 C   0  0  0  0  0  0
    6.0198    0.5860   21.2351 C   0  0  0  0  0  0
    6.4895   -0.4542   20.4005 C   0  0  0  0  0  0
    6.0867   -0.5549   19.0584 C   0  0  0  0  0  0
    5.1738    0.3923   18.5793 C   0  0  0  0  0  0
    4.6383    1.3439   19.3621 N   0  0  0  0  0  0
    5.0551    1.4369   20.6437 C   0  0  0  0  0  0
    6.8668   -2.4879   23.3164 C   0  0  0  0  0  0
    7.6475   -3.5368   23.8249 C   0  0  0  0  0  0
   11.1415   -5.3624   25.0806 H   0  0  0  0  0  0
   11.0142   -3.6019   24.9706 H   0  0  0  0  0  0
   10.2599   -4.5638   23.7710 H   0  0  0  0  0  0
    8.3812   -6.1639   24.2798 H   0  0  0  0  0  0
    7.4856   -5.9905   25.7903 H   0  0  0  0  0  0
    9.0686   -6.7522   25.7724 H   0  0  0  0  0  0
   10.0244   -5.3609   27.4370 H   0  0  0  0  0  0
    8.4955   -4.5257   27.6849 H   0  0  0  0  0  0
    9.9749   -3.6221   27.3707 H   0  0  0  0  0  0
    8.6983   -2.0306   26.7120 H   0  0  0  0  0  0
    7.3525   -0.2023   25.8035 H   0  0  0  0  0  0
    2.0797    0.0191   25.5125 H   0  0  0  0  0  0
    1.9364   -1.8930   27.4738 H   0  0  0  0  0  0
    4.2596   -3.3477   27.1518 H   0  0  0  0  0  0
    7.5890    0.3823   22.6052 H   0  0  0  0  0  0
    8.4198    2.3225   22.3735 H   0  0  0  0  0  0
   10.2372    3.6459   22.8562 H   0  0  0  0  0  0
   11.1796    5.7442   23.7605 H   0  0  0  0  0  0
    9.7073    7.3684   24.9459 H   0  0  0  0  0  0
    7.2806    6.8917   25.1839 H   0  0  0  0  0  0
    6.3196    4.8335   24.2750 H   0  0  0  0  0  0
    7.1755   -1.1875   20.7889 H   0  0  0  0  0  0
    6.4585   -1.3416   18.4202 H   0  0  0  0  0  0
    4.8237    0.3519   17.5595 H   0  0  0  0  0  0
    4.6026    2.2356   21.2127 H   0  0  0  0  0  0
    6.3748   -2.6192   22.3656 H   0  0  0  0  0  0
    7.7353   -4.4290   23.2268 H   0  0  0  0  0  0
  1  2  1  0  0  0
  1 35  1  0  0  0
  1 36  1  0  0  0
  1 37  1  0  0  0
  2  3  1  0  0  0
  2  4  1  0  0  0
  2  5  1  0  0  0
  3 38  1  0  0  0
  3 39  1  0  0  0
  3 40  1  0  0  0
  4 41  1  0  0  0
  4 42  1  0  0  0
  4 43  1  0  0  0
  5  6  2  0  0  0
  5 34  1  0  0  0
  6  7  1  0  0  0
  6 44  1  0  0  0
  7  8  2  0  0  0
  7 45  1  0  0  0
  8  9  1  0  0  0
  8 33  1  0  0  0
  9 10  1  0  0  0
  9 17  1  0  0  0
 10 11  2  0  0  0
 10 12  1  0  0  0
 12 13  2  0  0  0
 12 16  1  0  0  0
 13 14  1  0  0  0
 13 46  1  0  0  0
 14 15  2  0  0  0
 14 47  1  0  0  0
 15 16  1  0  0  0
 15 48  1  0  0  0
 17 18  1  0  0  0
 17 27  1  0  0  0
 17 49  1  0  0  0
 18 19  2  0  0  0
 18 20  1  0  0  0
 20 21  1  0  0  0
 20 50  1  0  0  0
 21 22  2  0  0  0
 21 26  1  0  0  0
 22 23  1  0  0  0
 22 51  1  0  0  0
 23 24  2  0  0  0
 23 52  1  0  0  0
 24 25  1  0  0  0
 24 53  1  0  0  0
 25 26  2  0  0  0
 25 54  1  0  0  0
 26 55  1  0  0  0
 27 28  2  0  0  0
 27 32  1  0  0  0
 28 29  1  0  0  0
 28 56  1  0  0  0
 29 30  2  0  0  0
 29 57  1  0  0  0
 30 31  1  0  0  0
 30 58  1  0  0  0
 31 32  2  0  0  0
 32 59  1  0  0  0
 33 34  2  0  0  0
 33 60  1  0  0  0
 34 61  1  0  0  0
M  END
> <s_m_entry_id>
2789

> <s_m_entry_name>
Compounds-withfrags-for-validation-docking.1906

> <s_m_Source_Path>
/home/rodolpho/data/melina/maestro/glide-dock_XP_5RGK_M-PRO_VALIDATION

> <s_m_Source_File>
glide-dock_XP_5RGK_M-PRO_VALIDATION_pv.maegz

> <i_m_Source_File_Index>
2789

> <CID>
ALP-POS-02c6a514-56

> <Potency>
11.2086

> <pIC50>
4.95045

> <Source>
Postera

> <smiles>
CC(C)(C)c1ccc(N(C(=O)c2ccco2)C(C(=O)Nc2ccccc2)c2cccnc2)cc1

> <Outcome>
Inactive

> <StandardizerResult>
Clear Stereo (ID: ClearStereo)
Wedge Clean (ID: WedgeClean)
Mesomerize (ID: Mesomerize)
Tautomerize (ID: Tautomerize)
Aromatize (ID: Aromatize)
Add Explicit Hydrogens (ID: AddExplicitH)
Neutralize (ID: Neutralize)
Clean 2D (ID: Clean2D)

> <chiral flag>
0

> <version>
0

> <i_lp_mmshare_version>
41011

> <i_f3d_flags>
0

> <s_epik_input>
W0NIM11DKFtDSDNdKShbQ0gzXSljMVtjSF1bY0hdYyhbY0hdW2NIXTEpTihDKD1PKWMyW2NIXVtjSF1bY0hdbzIpW0NAQEhdKGMzW2NIXVtjSF1bY0hdbltjSF0zKUMoPU8pW05IXWM0W2NIXVtjSF1bY0hdW2NIXVtjSF00

> <s_epik_cmdline>
J2VwaWtfcHl0aG9uJywgJy1waHQnLCAnMC41JywgJy1waCcsICc3LjQnLCAnLXRuJywgJzgnLCAnLW1hJywgJzIwMCcsICctaW1hZScsICc8aW5maWxlLm1hZT4nLCAnLW9tYWUnLCAnPG91dGZpbGUubWFlPic=

> <r_lp_tautomer_probability>
1.0

> <r_epik_Ionization_Penalty>
0.0036

> <r_epik_Ionization_Penalty_Charging>
0.0

> <r_epik_Ionization_Penalty_Neutral>
0.0036

> <r_epik_State_Penalty>
0.0

> <r_epik_Charging_Adjusted_Penalty>
0.0

> <i_epik_Tot_Q>
0

> <i_epik_Tot_abs_Q>
0

> <s_lp_Force_Field>
OPLS3

> <r_lp_Energy>
79.297

> <b_lp_Chiralities_Consistent>
1

> <s_lp_Variant>
ligprep_COVID_compounds-withfrags-smallmolecules-forvalidation.maegz:11-2

> <i_glide_original_lignum>
114

> <s_i_glide_gridfile>
glide-grid_5RGK_M-PRO_COVID

> <i_i_glide_lignum>
114

> <r_i_docking_score>
-3.39700452856097

> <r_i_glide_ligand_efficiency>
-0.0999118978988521

> <r_i_glide_ligand_efficiency_sa>
-0.323675763140687

> <r_i_glide_ligand_efficiency_ln>
-0.750493583108703

> <r_glide_XP_GScore>
-3.39700452856097

> <r_i_glide_gscore>
-3.39700452856097

> <r_i_glide_evdw>
-30.7950572967529

> <r_i_glide_ecoul>
-5.71156311035156

> <r_i_glide_energy>
-36.5066204071045

> <r_i_glide_einternal>
12.5100049972534

> <r_i_glide_emodel>
-43.0211641875082

> <r_glide_XP_HBond>
-0.366713572237329

> <i_i_glide_confnum>
3

> <i_i_glide_posenum>
20

> <r_i_glide_eff_state_penalty>
0.0

> <i_glide_XP_PoseRank>
1

> <MW>
453.21

> <TPSA>
75.44

> <Rotatable Bonds>
6

> <Fraction sp3>
0.18

> <HBA>
4

> <HBD>
1

> <cLogP>
6.0

> <s_epik_Chemistry_Notes>


> <Structure ID>


> <Submission Fragments>


$$$$
ligprep_COVID_compounds-withfrags-smallmolecules-forvalidation.maegz:21
                    3D
 Structure written by MMmdl.
 70 73  0  0  1  0            999 V2000
    1.9451    2.7844   26.1179 C   0  0  0  0  0  0
    2.3751    1.4098   25.9189 N   0  0  0  0  0  0
    2.3744    0.4683   26.8709 C   0  0  0  0  0  0
    2.8176   -0.7131   26.4776 N   0  0  0  0  0  0
    3.1414   -0.5133   25.1410 C   0  0  0  0  0  0
    2.8671    0.7872   24.7586 C   0  0  0  0  0  0
    2.8861    1.5068   23.4480 C   0  0  0  0  0  0
    1.9710    2.3115   23.2695 O   0  0  0  0  0  0
    3.9422    1.3902   22.5772 N   0  0  0  0  0  0
    5.2577    1.2046   23.1303 C   0  0  0  0  0  0
    6.0736    2.3287   23.3705 C   0  0  0  0  0  0
    7.3823    2.1885   23.8686 C   0  0  0  0  0  0
    7.9143    0.9093   24.1699 C   0  0  0  0  0  0
    9.3008    0.7218   24.8104 C   0  0  0  0  0  0
   10.1967   -0.1915   23.9572 C   0  0  0  0  0  0
    9.1318    0.0809   26.2033 C   0  0  0  0  0  0
   10.0566    2.0527   24.9698 C   0  0  0  0  0  0
    7.0990   -0.2188   23.9233 C   0  0  0  0  0  0
    5.7884   -0.0728   23.4272 C   0  0  0  0  0  0
    3.8867    1.9031   21.1490 C   0  0  2  0  0  0
    2.5026    2.2358   20.5089 C   0  0  0  0  0  0
    1.5667    1.4371   20.5773 O   0  0  0  0  0  0
    2.3747    3.4278   19.9091 N   0  0  0  0  0  0
    1.1177    4.0257   19.4888 C   0  0  0  0  0  0
    1.3242    5.3770   18.7799 C   0  0  0  0  0  0
    1.8542    5.2801   17.3572 C   0  0  0  0  0  0
    3.1077    5.8351   17.0192 C   0  0  0  0  0  0
    3.5634    5.8010   15.6866 C   0  0  0  0  0  0
    2.7743    5.1995   14.6859 C   0  0  0  0  0  0
    1.5292    4.6356   15.0195 C   0  0  0  0  0  0
    0.7754    4.0483   14.0610 F   0  0  0  0  0  0
    1.0685    4.6818   16.3486 C   0  0  0  0  0  0
    4.6404    1.0723   20.1119 C   0  0  0  0  0  0
    5.1742   -0.2089   20.3625 C   0  0  0  0  0  0
    5.8750   -0.9347   19.3939 C   0  0  0  0  0  0
    6.0378   -0.3477   18.1414 C   0  0  0  0  0  0
    5.5778    0.8786   17.8385 N   0  0  0  0  0  0
    4.8955    1.5467   18.7958 C   0  0  0  0  0  0
    2.6597    3.4691   25.6616 H   0  0  0  0  0  0
    1.8757    3.0096   27.1831 H   0  0  0  0  0  0
    0.9656    2.9323   25.6640 H   0  0  0  0  0  0
    2.0391    0.6527   27.8820 H   0  0  0  0  0  0
    3.5054   -1.3573   24.5720 H   0  0  0  0  0  0
    5.6974    3.3202   23.1724 H   0  0  0  0  0  0
    7.9454    3.0933   24.0301 H   0  0  0  0  0  0
   11.1749   -0.3088   24.4215 H   0  0  0  0  0  0
   10.3665    0.2365   22.9710 H   0  0  0  0  0  0
    9.7722   -1.1870   23.8393 H   0  0  0  0  0  0
    8.6475   -0.8949   26.1460 H   0  0  0  0  0  0
    8.5161    0.7049   26.8534 H   0  0  0  0  0  0
   10.0923   -0.0755   26.6938 H   0  0  0  0  0  0
   11.0531    1.8792   25.3706 H   0  0  0  0  0  0
    9.5365    2.7314   25.6479 H   0  0  0  0  0  0
   10.1903    2.5608   24.0143 H   0  0  0  0  0  0
    7.4608   -1.2111   24.1444 H   0  0  0  0  0  0
    5.1989   -0.9639   23.2871 H   0  0  0  0  0  0
    4.3751    2.8654   21.2206 H   0  0  0  0  0  0
    3.2423    3.9643   19.7711 H   0  0  0  0  0  0
    0.5511    3.3351   18.8697 H   0  0  0  0  0  0
    0.5253    4.1912   20.3902 H   0  0  0  0  0  0
    0.3687    5.9010   18.7309 H   0  0  0  0  0  0
    1.9834    6.0098   19.3766 H   0  0  0  0  0  0
    3.7242    6.2921   17.7800 H   0  0  0  0  0  0
    4.5184    6.2365   15.4306 H   0  0  0  0  0  0
    3.1240    5.1675   13.6646 H   0  0  0  0  0  0
    0.1031    4.2641   16.5886 H   0  0  0  0  0  0
    4.9596   -0.7235   21.2732 H   0  0  0  0  0  0
    6.2428   -1.9300   19.5958 H   0  0  0  0  0  0
    6.5495   -0.8921   17.3697 H   0  0  0  0  0  0
    4.5434    2.5199   18.4824 H   0  0  0  0  0  0
  1  2  1  0  0  0
  1 39  1  0  0  0
  1 40  1  0  0  0
  1 41  1  0  0  0
  2  3  1  0  0  0
  2  6  1  0  0  0
  3  4  2  0  0  0
  3 42  1  0  0  0
  4  5  1  0  0  0
  5  6  2  0  0  0
  5 43  1  0  0  0
  6  7  1  0  0  0
  7  8  2  0  0  0
  7  9  1  0  0  0
  9 10  1  0  0  0
  9 20  1  0  0  0
 10 11  2  0  0  0
 10 19  1  0  0  0
 11 12  1  0  0  0
 11 44  1  0  0  0
 12 13  2  0  0  0
 12 45  1  0  0  0
 13 14  1  0  0  0
 13 18  1  0  0  0
 14 15  1  0  0  0
 14 16  1  0  0  0
 14 17  1  0  0  0
 15 46  1  0  0  0
 15 47  1  0  0  0
 15 48  1  0  0  0
 16 49  1  0  0  0
 16 50  1  0  0  0
 16 51  1  0  0  0
 17 52  1  0  0  0
 17 53  1  0  0  0
 17 54  1  0  0  0
 18 19  2  0  0  0
 18 55  1  0  0  0
 19 56  1  0  0  0
 20 21  1  0  0  0
 20 33  1  0  0  0
 20 57  1  0  0  0
 21 22  2  0  0  0
 21 23  1  0  0  0
 23 24  1  0  0  0
 23 58  1  0  0  0
 24 25  1  0  0  0
 24 59  1  0  0  0
 24 60  1  0  0  0
 25 26  1  0  0  0
 25 61  1  0  0  0
 25 62  1  0  0  0
 26 27  2  0  0  0
 26 32  1  0  0  0
 27 28  1  0  0  0
 27 63  1  0  0  0
 28 29  2  0  0  0
 28 64  1  0  0  0
 29 30  1  0  0  0
 29 65  1  0  0  0
 30 31  1  0  0  0
 30 32  2  0  0  0
 32 66  1  0  0  0
 33 34  2  0  0  0
 33 38  1  0  0  0
 34 35  1  0  0  0
 34 67  1  0  0  0
 35 36  2  0  0  0
 35 68  1  0  0  0
 36 37  1  0  0  0
 36 69  1  0  0  0
 37 38  2  0  0  0
 38 70  1  0  0  0
M  END
> <s_m_entry_id>
2810

> <s_m_entry_name>
Compounds-withfrags-for-validation-docking.1896

> <s_m_Source_Path>
/home/rodolpho/data/melina/maestro/glide-dock_XP_5RGK_M-PRO_VALIDATION

> <s_m_Source_File>
glide-dock_XP_5RGK_M-PRO_VALIDATION_pv.maegz

> <i_m_Source_File_Index>
2810

> <CID>
ALP-POS-02c6a514-22

> <Potency>
99.5

> <pIC50>
4.00218

> <Source>
Postera

> <smiles>
Cn1cncc1C(=O)N(c1ccc(C(C)(C)C)cc1)C(C(=O)NCCc1cccc(F)c1)c1cccnc1

> <Outcome>
Inactive

> <StandardizerResult>
Clear Stereo (ID: ClearStereo)
Wedge Clean (ID: WedgeClean)
Mesomerize (ID: Mesomerize)
Tautomerize (ID: Tautomerize)
Aromatize (ID: Aromatize)
Add Explicit Hydrogens (ID: AddExplicitH)
Neutralize (ID: Neutralize)
Clean 2D (ID: Clean2D)

> <chiral flag>
0

> <version>
0

> <i_lp_mmshare_version>
41011

> <i_f3d_flags>
0

> <s_epik_input>
W0NIM11uMVtjSF1uW2NIXWMxQyg9TylOKGMyW2NIXVtjSF1jKEMoW0NIM10pKFtDSDNdKVtDSDNdKVtjSF1bY0hdMilbQ0BASF0oYzNbY0hdW2NIXVtjSF1uW2NIXTMpQyg9TylbTkhdW0NIMl1bQ0gyXWM0W2NIXVtjSF1bY0hdYyhGKVtjSF00

> <s_epik_cmdline>
J2VwaWtfcHl0aG9uJywgJy1waHQnLCAnMC41JywgJy1waCcsICc3LjQnLCAnLXRuJywgJzgnLCAnLW1hJywgJzIwMCcsICctaW1hZScsICc8aW5maWxlLm1hZT4nLCAnLW9tYWUnLCAnPG91dGZpbGUubWFlPic=

> <r_lp_tautomer_probability>
1.0

> <r_epik_Ionization_Penalty>
0.0063

> <r_epik_Ionization_Penalty_Charging>
0.0057

> <r_epik_Ionization_Penalty_Neutral>
6.0E-4

> <r_epik_State_Penalty>
0.0

> <r_epik_Charging_Adjusted_Penalty>
0.00572067

> <i_epik_Tot_Q>
0

> <i_epik_Tot_abs_Q>
0

> <s_lp_Force_Field>
OPLS3

> <r_lp_Energy>
71.9715

> <b_lp_Chiralities_Consistent>
1

> <s_lp_Variant>
ligprep_COVID_compounds-withfrags-smallmolecules-forvalidation.maegz:21-2

> <i_glide_original_lignum>
136

> <s_i_glide_gridfile>
glide-grid_5RGK_M-PRO_COVID

> <i_i_glide_lignum>
136

> <r_i_docking_score>
-3.37412861462278

> <r_i_glide_ligand_efficiency>
-0.0887928582795469

> <r_i_glide_ligand_efficiency_sa>
-0.298519405473259

> <r_i_glide_ligand_efficiency_ln>
-0.727561386120286

> <r_glide_XP_GScore>
-3.37412861462278

> <r_i_glide_gscore>
-3.37412861462278

> <r_i_glide_evdw>
-32.229850769043

> <r_i_glide_ecoul>
-10.1165761947632

> <r_i_glide_energy>
-42.3464269638062

> <r_i_glide_einternal>
4.76286029815674

> <r_i_glide_emodel>
-59.3236029937651

> <r_glide_XP_HBond>
-0.828047531318971

> <i_i_glide_confnum>
2

> <i_i_glide_posenum>
9

> <r_i_glide_eff_state_penalty>
0.0

> <i_glide_XP_PoseRank>
1

> <MW>
513.25

> <TPSA>
80.12

> <Rotatable Bonds>
8

> <Fraction sp3>
0.27

> <HBA>
5

> <HBD>
1

> <cLogP>
5.0

> <s_epik_Chemistry_Notes>


> <Structure ID>


> <Submission Fragments>


$$$$
ligprep_COVID_compounds-withfrags-smallmolecules-forvalidation.maegz:43
                    3D
 Structure written by MMmdl.
 59 62  0  0  1  0            999 V2000
    3.9461    1.7916   18.9722 C   0  0  0  0  0  0
    3.2075    1.5172   20.1608 O   0  0  0  0  0  0
    2.7744    2.6377   20.8248 C   0  0  0  0  0  0
    1.9724    3.6041   20.1750 C   0  0  0  0  0  0
    1.5751    4.7752   20.8456 C   0  0  0  0  0  0
    1.9826    4.9967   22.1734 C   0  0  0  0  0  0
    2.7608    4.0312   22.8372 C   0  0  0  0  0  0
    3.1307    2.8346   22.1801 C   0  0  0  0  0  0
    3.8584    1.8316   22.8885 N   0  0  0  0  0  0
    3.1857    1.0368   23.7712 C   0  0  0  0  0  0
    3.6785    0.0672   24.3389 O   0  0  0  0  0  0
    1.7756    1.3528   24.0987 C   0  0  0  0  0  0
    1.2450    2.1289   25.0934 C   0  0  0  0  0  0
   -0.1694    2.0589   24.9505 C   0  0  0  0  0  0
   -0.4000    1.2286   23.8918 C   0  0  0  0  0  0
    0.7729    0.7805   23.3705 O   0  0  0  0  0  0
    5.3072    1.7062   22.5284 C   0  0  1  0  0  0
    6.2024    2.6359   23.3711 C   0  0  0  0  0  0
    5.7240    3.2058   24.3539 O   0  0  0  0  0  0
    7.4686    2.8470   22.9707 N   0  0  0  0  0  0
    8.2742    3.9722   23.4364 C   0  0  0  0  0  0
    9.3552    3.5495   24.4386 C   0  0  0  0  0  0
   10.6852    3.2494   23.7706 C   0  0  0  0  0  0
   11.4469    4.3111   23.2344 C   0  0  0  0  0  0
   12.6929    4.0592   22.6342 C   0  0  0  0  0  0
   13.1768    2.7409   22.5707 C   0  0  0  0  0  0
   12.4156    1.6762   23.0849 C   0  0  0  0  0  0
   12.8747    0.4101   22.9689 F   0  0  0  0  0  0
   11.1784    1.9293   23.7079 C   0  0  0  0  0  0
    5.8947    0.3158   22.5223 C   0  0  0  0  0  0
    5.8583   -0.4579   21.3420 C   0  0  0  0  0  0
    6.3749   -1.7643   21.3334 C   0  0  0  0  0  0
    6.8929   -2.2867   22.5302 C   0  0  0  0  0  0
    6.9926   -1.5649   23.6609 N   0  0  0  0  0  0
    6.5081   -0.3072   23.6408 C   0  0  0  0  0  0
    4.9128    2.2334   19.2155 H   0  0  0  0  0  0
    3.4412    2.4711   18.2887 H   0  0  0  0  0  0
    4.1395    0.8611   18.4386 H   0  0  0  0  0  0
    1.6664    3.4615   19.1496 H   0  0  0  0  0  0
    0.9760    5.5122   20.3326 H   0  0  0  0  0  0
    1.6971    5.9049   22.6850 H   0  0  0  0  0  0
    3.0653    4.2034   23.8589 H   0  0  0  0  0  0
    1.8086    2.6849   25.8277 H   0  0  0  0  0  0
   -0.9223    2.5477   25.5498 H   0  0  0  0  0  0
   -1.2911    0.8630   23.4041 H   0  0  0  0  0  0
    5.4131    2.1044   21.5190 H   0  0  0  0  0  0
    7.8076    2.3469   22.1578 H   0  0  0  0  0  0
    8.7069    4.4824   22.5757 H   0  0  0  0  0  0
    7.6343    4.7206   23.9074 H   0  0  0  0  0  0
    9.5146    4.3711   25.1400 H   0  0  0  0  0  0
    9.0199    2.7036   25.0437 H   0  0  0  0  0  0
   11.0729    5.3237   23.2800 H   0  0  0  0  0  0
   13.2725    4.8737   22.2261 H   0  0  0  0  0  0
   14.1395    2.5417   22.1258 H   0  0  0  0  0  0
   10.6023    1.1100   24.1143 H   0  0  0  0  0  0
    5.4241   -0.0556   20.4402 H   0  0  0  0  0  0
    6.3419   -2.3681   20.4388 H   0  0  0  0  0  0
    7.2804   -3.2942   22.5655 H   0  0  0  0  0  0
    6.6113    0.2233   24.5709 H   0  0  0  0  0  0
  1  2  1  0  0  0
  1 36  1  0  0  0
  1 37  1  0  0  0
  1 38  1  0  0  0
  2  3  1  0  0  0
  3  4  2  0  0  0
  3  8  1  0  0  0
  4  5  1  0  0  0
  4 39  1  0  0  0
  5  6  2  0  0  0
  5 40  1  0  0  0
  6  7  1  0  0  0
  6 41  1  0  0  0
  7  8  2  0  0  0
  7 42  1  0  0  0
  8  9  1  0  0  0
  9 10  1  0  0  0
  9 17  1  0  0  0
 10 11  2  0  0  0
 10 12  1  0  0  0
 12 13  2  0  0  0
 12 16  1  0  0  0
 13 14  1  0  0  0
 13 43  1  0  0  0
 14 15  2  0  0  0
 14 44  1  0  0  0
 15 16  1  0  0  0
 15 45  1  0  0  0
 17 18  1  0  0  0
 17 30  1  0  0  0
 17 46  1  0  0  0
 18 19  2  0  0  0
 18 20  1  0  0  0
 20 21  1  0  0  0
 20 47  1  0  0  0
 21 22  1  0  0  0
 21 48  1  0  0  0
 21 49  1  0  0  0
 22 23  1  0  0  0
 22 50  1  0  0  0
 22 51  1  0  0  0
 23 24  2  0  0  0
 23 29  1  0  0  0
 24 25  1  0  0  0
 24 52  1  0  0  0
 25 26  2  0  0  0
 25 53  1  0  0  0
 26 27  1  0  0  0
 26 54  1  0  0  0
 27 28  1  0  0  0
 27 29  2  0  0  0
 29 55  1  0  0  0
 30 31  2  0  0  0
 30 35  1  0  0  0
 31 32  1  0  0  0
 31 56  1  0  0  0
 32 33  2  0  0  0
 32 57  1  0  0  0
 33 34  1  0  0  0
 33 58  1  0  0  0
 34 35  2  0  0  0
 35 59  1  0  0  0
M  END
> <s_m_entry_id>
2823

> <s_m_entry_name>
Compounds-withfrags-for-validation-docking.1874

> <s_m_Source_Path>
/home/rodolpho/data/melina/maestro/glide-dock_XP_5RGK_M-PRO_VALIDATION

> <s_m_Source_File>
glide-dock_XP_5RGK_M-PRO_VALIDATION_pv.maegz

> <i_m_Source_File_Index>
2823

> <CID>
ALP-POS-b0bc6a46-8

> <Potency>
99.5

> <pIC50>
4.00218

> <Source>
Postera

> <smiles>
COc1ccccc1N(C(=O)c1ccco1)C(C(=O)NCCc1cccc(F)c1)c1cccnc1

> <Outcome>
Inactive

> <StandardizerResult>
Clear Stereo (ID: ClearStereo)
Wedge Clean (ID: WedgeClean)
Mesomerize (ID: Mesomerize)
Tautomerize (ID: Tautomerize)
Aromatize (ID: Aromatize)
Add Explicit Hydrogens (ID: AddExplicitH)
Neutralize (ID: Neutralize)
Clean 2D (ID: Clean2D)

> <chiral flag>
0

> <version>
0

> <i_lp_mmshare_version>
41011

> <i_f3d_flags>
0

> <s_epik_input>
W0NIM11PYzFbY0hdW2NIXVtjSF1bY0hdYzFOKEMoPU8pYzJbY0hdW2NIXVtjSF1vMilbQ0BIXShjM1tjSF1bY0hdW2NIXW5bY0hdMylDKD1PKVtOSF1bQ0gyXVtDSDJdYzRbY0hdW2NIXVtjSF1jKEYpW2NIXTQ=

> <s_epik_cmdline>
J2VwaWtfcHl0aG9uJywgJy1waHQnLCAnMC41JywgJy1waCcsICc3LjQnLCAnLXRuJywgJzgnLCAnLW1hJywgJzIwMCcsICctaW1hZScsICc8aW5maWxlLm1hZT4nLCAnLW9tYWUnLCAnPG91dGZpbGUubWFlPic=

> <r_lp_tautomer_probability>
1.0

> <r_epik_Ionization_Penalty>
5.0E-4

> <r_epik_Ionization_Penalty_Charging>
0.0

> <r_epik_Ionization_Penalty_Neutral>
5.0E-4

> <r_epik_State_Penalty>
0.0

> <r_epik_Charging_Adjusted_Penalty>
0.0

> <i_epik_Tot_Q>
0

> <i_epik_Tot_abs_Q>
0

> <s_lp_Force_Field>
OPLS3

> <r_lp_Energy>
75.4652

> <b_lp_Chiralities_Consistent>
1

> <s_lp_Variant>
ligprep_COVID_compounds-withfrags-smallmolecules-forvalidation.maegz:43-1

> <i_glide_original_lignum>
191

> <s_i_glide_gridfile>
glide-grid_5RGK_M-PRO_COVID

> <i_i_glide_lignum>
191

> <r_i_docking_score>
-3.36387027253663

> <r_i_glide_ligand_efficiency>
-0.0961105792153324

> <r_i_glide_ligand_efficiency_sa>
-0.314384077351404

> <r_i_glide_ligand_efficiency_ln>
-0.738444181900073

> <r_glide_XP_GScore>
-3.36387027253663

> <r_i_glide_gscore>
-3.36387027253663

> <r_i_glide_evdw>
-29.8025856018066

> <r_i_glide_ecoul>
-5.97066688537598

> <r_i_glide_energy>
-35.7732524871826

> <r_i_glide_einternal>
6.85049152374268

> <r_i_glide_emodel>
-50.6453934933498

> <r_glide_XP_HBond>
-0.296117162684708

> <i_i_glide_confnum>
2

> <i_i_glide_posenum>
14

> <r_i_glide_eff_state_penalty>
0.0

> <i_glide_XP_PoseRank>
1

> <MW>
473.18

> <cLogP>
4.57

> <TPSA>
84.67

> <Rotatable Bonds>
9

> <Fraction sp3>
0.15

> <HBA>
5

> <HBD>
1

> <s_epik_Chemistry_Notes>


> <Structure ID>


> <Submission Fragments>


$$$$
ligprep_COVID_compounds-withfrags-smallmolecules-forvalidation.maegz:4
                    3D
 Structure written by MMmdl.
 93 97  0  0  1  0            999 V2000
    3.8259    6.7787   16.8265 C   0  0  0  0  0  0
    2.5055    5.9917   16.8683 C   0  0  0  0  0  0
    1.3167    6.9111   16.5047 C   0  0  0  0  0  0
    2.5835    4.8744   15.8141 C   0  0  0  0  0  0
    2.3749    5.3278   18.1760 N   0  0  0  0  0  0
    1.6336    5.6125   19.2665 C   0  0  0  0  0  0
    0.9618    6.6336   19.3962 O   0  0  0  0  0  0
    1.6169    4.5605   20.4006 C   0  0  1  0  0  0
    1.4079    3.1455   19.7893 C   0  0  0  0  0  0
    1.3339    2.0774   20.7845 N   0  0  0  0  0  0
    0.2055    2.1395   21.7191 C   0  0  0  0  0  0
   -1.1502    1.9065   21.0912 C   0  0  0  0  0  0
   -1.6713    0.6021   20.9593 C   0  0  0  0  0  0
   -2.9660    0.4471   20.4283 C   0  0  0  0  0  0
   -3.6863    1.5978   20.0527 C   0  0  0  0  0  0
   -3.1925    2.8481   20.1736 N   0  0  0  0  0  0
   -1.9499    2.9946   20.6789 C   0  0  0  0  0  0
    2.6131    2.1092   21.4814 C   0  0  0  0  0  0
    2.8452    3.4334   22.2292 C   0  0  0  0  0  0
    2.7750    4.6519   21.3663 N   0  3  2  0  0  0
    2.7556    5.9746   22.0962 C   0  0  0  0  0  0
    3.6355    6.2360   23.3710 C   0  0  2  0  0  0
    4.4819    7.5298   23.3293 C   0  0  0  0  0  0
    5.8156    7.4254   22.5161 C   0  0  1  0  0  0
    6.1826    8.7089   21.7321 C   0  0  0  0  0  0
    5.0259    9.4227   21.0490 C   0  0  0  0  0  0
    4.7307   10.7589   21.3947 C   0  0  0  0  0  0
    3.6518   11.4300   20.7882 C   0  0  0  0  0  0
    2.8532   10.7602   19.8407 C   0  0  0  0  0  0
    3.1421    9.4256   19.4948 C   0  0  0  0  0  0
    4.2398    8.7605   20.0827 C   0  0  0  0  0  0
    6.9932    7.0135   23.4347 C   0  0  0  0  0  0
    7.4600    7.8328   24.2276 O   0  0  0  0  0  0
    7.4307    5.7429   23.3705 N   0  0  0  0  0  0
    8.2285    5.0725   24.4104 C   0  0  2  0  0  0
    9.5826    4.6248   23.9264 C   0  0  0  0  0  0
   10.5815    5.4374   23.3709 C   0  0  0  0  0  0
   11.7987    4.8356   22.9804 C   0  0  0  0  0  0
   11.9995    3.4478   23.1672 C   0  0  0  0  0  0
   11.0017    2.6474   23.7682 C   0  0  0  0  0  0
    9.7942    3.2639   24.1344 C   0  0  0  0  0  0
    8.6208    2.6105   24.8002 C   0  0  0  0  0  0
    7.5800    3.7498   24.9356 C   0  0  2  0  0  0
    6.4355    3.3871   24.1953 O   0  0  0  0  0  0
    4.4793    5.1967   23.7713 O   0  0  0  0  0  0
    4.0136    7.1767   15.8280 H   0  0  0  0  0  0
    4.6701    6.1534   17.1102 H   0  0  0  0  0  0
    3.8066    7.6252   17.5010 H   0  0  0  0  0  0
    1.2697    7.7928   17.1433 H   0  0  0  0  0  0
    0.3635    6.3877   16.5764 H   0  0  0  0  0  0
    1.4047    7.2775   15.4782 H   0  0  0  0  0  0
    2.6835    5.2813   14.8062 H   0  0  0  0  0  0
    1.6963    4.2451   15.8263 H   0  0  0  0  0  0
    3.4511    4.2358   15.9866 H   0  0  0  0  0  0
    3.0245    4.5571   18.2994 H   0  0  0  0  0  0
    0.7132    4.7838   20.9694 H   0  0  0  0  0  0
    0.5078    3.1298   19.1764 H   0  0  0  0  0  0
    2.2284    2.9044   19.1095 H   0  0  0  0  0  0
    0.3508    1.3729   22.4816 H   0  0  0  0  0  0
    0.1775    3.0865   22.2588 H   0  0  0  0  0  0
   -1.1033   -0.2635   21.2706 H   0  0  0  0  0  0
   -3.4061   -0.5326   20.3144 H   0  0  0  0  0  0
   -4.6829    1.5179   19.6468 H   0  0  0  0  0  0
   -1.5895    4.0070   20.7778 H   0  0  0  0  0  0
    2.6606    1.2797   22.1844 H   0  0  0  0  0  0
    3.4178    1.9425   20.7617 H   0  0  0  0  0  0
    2.1817    3.5340   23.0907 H   0  0  0  0  0  0
    3.8521    3.3040   22.6085 H   0  0  0  0  0  0
    2.9581    6.7671   21.3756 H   0  0  0  0  0  0
    1.7280    6.1558   22.4096 H   0  0  0  0  0  0
    2.9370    6.3543   24.1981 H   0  0  0  0  0  0
    3.8378    8.3300   22.9725 H   0  0  0  0  0  0
    4.7087    7.8258   24.3586 H   0  0  0  0  0  0
    5.6795    6.6425   21.7736 H   0  0  0  0  0  0
    6.6476    9.4280   22.4084 H   0  0  0  0  0  0
    6.9187    8.4656   20.9682 H   0  0  0  0  0  0
    5.3306   11.2753   22.1286 H   0  0  0  0  0  0
    3.4309   12.4539   21.0536 H   0  0  0  0  0  0
    2.0207   11.2715   19.3760 H   0  0  0  0  0  0
    2.5138    8.9174   18.7812 H   0  0  0  0  0  0
    4.4654    7.7389   19.8109 H   0  0  0  0  0  0
    7.0219    5.1314   22.6675 H   0  0  0  0  0  0
    8.4068    5.7379   25.2579 H   0  0  0  0  0  0
   10.3927    6.4903   23.2280 H   0  0  0  0  0  0
   12.5721    5.4361   22.5303 H   0  0  0  0  0  0
   12.9353    2.9984   22.8632 H   0  0  0  0  0  0
   11.1594    1.5935   23.9356 H   0  0  0  0  0  0
    8.2655    1.7748   24.1995 H   0  0  0  0  0  0
    8.9147    2.2273   25.7756 H   0  0  0  0  0  0
    7.2836    3.8643   25.9785 H   0  0  0  0  0  0
    5.7640    4.0447   24.3430 H   0  0  0  0  0  0
    5.0362    4.9956   23.0169 H   0  0  0  0  0  0
    3.6313    4.6367   20.8093 H   0  0  0  0  0  0
  1  2  1  0  0  0
  1 46  1  0  0  0
  1 47  1  0  0  0
  1 48  1  0  0  0
  2  3  1  0  0  0
  2  4  1  0  0  0
  2  5  1  0  0  0
  3 49  1  0  0  0
  3 50  1  0  0  0
  3 51  1  0  0  0
  4 52  1  0  0  0
  4 53  1  0  0  0
  4 54  1  0  0  0
  5  6  1  0  0  0
  5 55  1  0  0  0
  6  7  2  0  0  0
  6  8  1  0  0  0
  8  9  1  0  0  0
  8 20  1  0  0  0
  8 56  1  0  0  0
  9 10  1  0  0  0
  9 57  1  0  0  0
  9 58  1  0  0  0
 10 11  1  0  0  0
 10 18  1  0  0  0
 11 12  1  0  0  0
 11 59  1  0  0  0
 11 60  1  0  0  0
 12 13  2  0  0  0
 12 17  1  0  0  0
 13 14  1  0  0  0
 13 61  1  0  0  0
 14 15  2  0  0  0
 14 62  1  0  0  0
 15 16  1  0  0  0
 15 63  1  0  0  0
 16 17  2  0  0  0
 17 64  1  0  0  0
 18 19  1  0  0  0
 18 65  1  0  0  0
 18 66  1  0  0  0
 19 20  1  0  0  0
 19 67  1  0  0  0
 19 68  1  0  0  0
 20 21  1  0  0  0
 20 93  1  0  0  0
 21 22  1  0  0  0
 21 69  1  0  0  0
 21 70  1  0  0  0
 22 23  1  0  0  0
 22 45  1  0  0  0
 22 71  1  0  0  0
 23 24  1  0  0  0
 23 72  1  0  0  0
 23 73  1  0  0  0
 24 25  1  0  0  0
 24 32  1  0  0  0
 24 74  1  0  0  0
 25 26  1  0  0  0
 25 75  1  0  0  0
 25 76  1  0  0  0
 26 27  2  0  0  0
 26 31  1  0  0  0
 27 28  1  0  0  0
 27 77  1  0  0  0
 28 29  2  0  0  0
 28 78  1  0  0  0
 29 30  1  0  0  0
 29 79  1  0  0  0
 30 31  2  0  0  0
 30 80  1  0  0  0
 31 81  1  0  0  0
 32 33  2  0  0  0
 32 34  1  0  0  0
 34 35  1  0  0  0
 34 82  1  0  0  0
 35 36  1  0  0  0
 35 43  1  0  0  0
 35 83  1  0  0  0
 36 37  2  0  0  0
 36 41  1  0  0  0
 37 38  1  0  0  0
 37 84  1  0  0  0
 38 39  2  0  0  0
 38 85  1  0  0  0
 39 40  1  0  0  0
 39 86  1  0  0  0
 40 41  2  0  0  0
 40 87  1  0  0  0
 41 42  1  0  0  0
 42 43  1  0  0  0
 42 88  1  0  0  0
 42 89  1  0  0  0
 43 44  1  0  0  0
 43 90  1  0  0  0
 44 91  1  0  0  0
 45 92  1  0  0  0
M  CHG  1  20   1
M  END
> <s_m_entry_id>
2837

> <s_m_entry_name>
Compounds-withfrags-for-validation-docking.1913

> <s_m_Source_Path>
/home/rodolpho/data/melina/maestro/glide-dock_XP_5RGK_M-PRO_VALIDATION

> <s_m_Source_File>
glide-dock_XP_5RGK_M-PRO_VALIDATION_pv.maegz

> <i_m_Source_File_Index>
2837

> <CID>
Indinavir

> <Potency>
43.13

> <pIC50>
4.36522

> <Source>
https://doi.org/10.1101/2020.03.23.004580

> <smiles>
C(C(C([H])([H])[H])(C([H])([H])[H])N(C(=O)C1(C([H])([H])N(C(C2=C([H])C([H])=C([H])N=C2[H])([H])[H])C([H])([H])C([H])([H])N1C(C(C(C(C(C1=C([H])C([H])=C([H])C([H])=C1[H])([H])[H])(C(=O)N(C1(C2=C(C(=C(C([H])=C2C([H])([H])C1(O[H])[H])[H])[H])[H])[H])[H])[H])([H])[H])(O[H])[H])([H])[H])[H])[H])([H])([H])[H]

> <Outcome>
Inactive

> <StandardizerResult>
Clear Stereo (ID: ClearStereo)
Wedge Clean (ID: WedgeClean)
Mesomerize (ID: Mesomerize)
Tautomerize (ID: Tautomerize)
Aromatize (ID: Aromatize)
Add Explicit Hydrogens (ID: AddExplicitH)
Neutralize (ID: Neutralize)
Clean 2D (ID: Clean2D)

> <chiral flag>
0

> <version>
0

> <i_lp_mmshare_version>
41011

> <i_f3d_flags>
0

> <s_epik_input>
W2NIXTFuW2NIXVtjSF1bY0hdYzFbQ0gyXU4oW0NIMl1bQ0BASF0yQyg9TylbTkhdQyhbQ0gzXSkoW0NIM10pW0NIM10pW0NIMl1bQ0gyXU4yW0NIMl1bQ0BASF0oW09IXSlbQ0gyXVtDQEBIXShbQ0gyXWMzW2NIXVtjSF1bY0hdW2NIXVtjSF0zKUMoPU8pW05IXVtDQEhdNFtDQEBIXShbT0hdKVtDSDJdYyhjNDUpW2NIXVtjSF1bY0hdW2NIXTU=

> <s_epik_cmdline>
J2VwaWtfcHl0aG9uJywgJy1waHQnLCAnMC41JywgJy1waCcsICc3LjQnLCAnLXRuJywgJzgnLCAnLW1hJywgJzIwMCcsICctaW1hZScsICc8aW5maWxlLm1hZT4nLCAnLW9tYWUnLCAnPG91dGZpbGUubWFlPic=

> <r_epik_Ionization_Penalty>
0.3395

> <r_epik_Ionization_Penalty_Charging>
0.3352

> <r_epik_Ionization_Penalty_Neutral>
0.0044

> <r_epik_State_Penalty>
0.5191

> <r_epik_Charging_Adjusted_Penalty>
0.854238

> <i_epik_Tot_Q>
1

> <i_epik_Tot_abs_Q>
1

> <s_lp_Force_Field>
OPLS3

> <r_lp_Energy>
54.5726

> <b_lp_Chiralities_Consistent>
1

> <s_lp_Variant>
ligprep_COVID_compounds-withfrags-smallmolecules-forvalidation.maegz:4-18

> <i_glide_original_lignum>
37

> <s_i_glide_gridfile>
glide-grid_5RGK_M-PRO_COVID

> <i_i_glide_lignum>
37

> <r_i_docking_score>
-3.35379682574135

> <r_i_glide_ligand_efficiency>
-0.0745288183498079

> <r_i_glide_ligand_efficiency_sa>
-0.265091054643617

> <r_i_glide_ligand_efficiency_ln>
-0.697739196974825

> <r_glide_XP_GScore>
-3.87286882574135

> <r_i_glide_gscore>
-3.87286882574135

> <r_i_glide_evdw>
-34.2300453186035

> <r_i_glide_ecoul>
-16.6332778930664

> <r_i_glide_energy>
-50.8633232116699

> <r_i_glide_einternal>
6.8424186706543

> <r_i_glide_emodel>
-67.6422169519005

> <r_glide_XP_HBond>
-1.71304164786684

> <i_i_glide_confnum>
2

> <i_i_glide_posenum>
27

> <r_i_glide_eff_state_penalty>
0.519072

> <i_glide_XP_PoseRank>
1

> <r_lp_tautomer_probability>


> <s_epik_Chemistry_Notes>


> <MW>


> <cLogP>


> <TPSA>


> <Rotatable Bonds>


> <Fraction sp3>


> <HBA>


> <HBD>


> <Structure ID>


> <Submission Fragments>


$$$$
ligprep_COVID_compounds-withfrags-smallmolecules-forvalidation.maegz:45
                    3D
 Structure written by MMmdl.
 66 70  0  0  1  0            999 V2000
    5.5461   -5.4456   32.8523 C   0  0  0  0  0  0
    5.1877   -5.9456   31.4501 C   0  0  0  0  0  0
    6.3717   -5.9939   30.6642 O   0  0  0  0  0  0
    6.1665   -6.3912   29.3116 C   0  0  1  0  0  0
    4.7151   -6.1284   28.8870 C   0  0  0  0  0  0
    5.2083   -4.9509   28.0415 C   0  0  2  0  0  0
    6.6657   -5.3495   28.2971 C   0  0  0  0  0  0
    4.6776   -3.5477   28.0905 C   0  0  0  0  0  0
    4.5708   -4.3494   26.7961 C   0  0  1  0  0  0
    5.4259   -4.0708   25.6167 N   0  0  0  0  0  0
    5.5196   -5.0282   24.6433 C   0  0  0  0  0  0
    6.4437   -5.0930   23.8288 O   0  0  0  0  0  0
    4.4880   -6.0389   24.6091 C   0  0  0  0  0  0
    4.1290   -6.9318   23.6045 C   0  0  0  0  0  0
    3.1414   -7.7658   24.1303 C   0  0  0  0  0  0
    2.9771   -7.3865   25.4510 C   0  0  0  0  0  0
    3.8133   -6.3593   25.7493 O   0  0  0  0  0  0
    6.5486   -3.0910   25.8082 C   0  0  2  0  0  0
    6.2978   -1.7260   25.1131 C   0  0  0  0  0  0
    5.1474   -1.3060   24.9776 O   0  0  0  0  0  0
    7.3894   -1.0947   24.6472 N   0  0  0  0  0  0
    7.4152    0.2869   24.1644 C   0  0  0  0  0  0
    8.2117    1.2583   25.0627 C   0  0  0  0  0  0
    9.4759    1.8138   24.4192 C   0  0  0  0  0  0
    9.5506    3.1630   24.0582 C   0  0  0  0  0  0
   10.7014    3.6657   23.4506 C   0  0  0  0  0  0
   11.7849    2.8229   23.2033 C   0  0  0  0  0  0
   11.7186    1.4775   23.5659 C   0  0  0  0  0  0
   12.7696    0.6606   23.3284 F   0  0  0  0  0  0
   10.5673    0.9740   24.1732 C   0  0  0  0  0  0
    7.9174   -3.6650   25.4831 C   0  0  0  0  0  0
    8.7162   -3.2073   24.4211 C   0  0  0  0  0  0
    9.9767   -3.7656   24.2031 C   0  0  0  0  0  0
   10.4146   -4.7740   25.0608 C   0  0  0  0  0  0
    9.6730   -5.2290   26.1013 N   0  0  0  0  0  0
    8.4526   -4.6690   26.3007 C   0  0  0  0  0  0
    4.6623   -5.4042   33.4891 H   0  0  0  0  0  0
    5.9769   -4.4447   32.8144 H   0  0  0  0  0  0
    6.2712   -6.1047   33.3308 H   0  0  0  0  0  0
    4.7299   -6.9338   31.5184 H   0  0  0  0  0  0
    4.4571   -5.2751   30.9942 H   0  0  0  0  0  0
    6.5215   -7.4183   29.2020 H   0  0  0  0  0  0
    4.2681   -6.9368   28.3105 H   0  0  0  0  0  0
    4.0354   -5.8592   29.6966 H   0  0  0  0  0  0
    7.2881   -4.5550   28.7107 H   0  0  0  0  0  0
    7.1747   -5.7770   27.4358 H   0  0  0  0  0  0
    3.7639   -3.3518   28.6512 H   0  0  0  0  0  0
    5.3972   -2.7330   28.1745 H   0  0  0  0  0  0
    3.5748   -4.7027   26.5282 H   0  0  0  0  0  0
    4.5319   -6.9680   22.6029 H   0  0  0  0  0  0
    2.6252   -8.5632   23.6165 H   0  0  0  0  0  0
    2.3514   -7.7438   26.2555 H   0  0  0  0  0  0
    6.5947   -2.8528   26.8695 H   0  0  0  0  0  0
    8.2627   -1.6003   24.6088 H   0  0  0  0  0  0
    7.8675    0.2739   23.1724 H   0  0  0  0  0  0
    6.3999    0.6637   24.0208 H   0  0  0  0  0  0
    7.5693    2.0818   25.3795 H   0  0  0  0  0  0
    8.4937    0.7461   25.9837 H   0  0  0  0  0  0
    8.7130    3.8203   24.2394 H   0  0  0  0  0  0
   10.7516    4.7062   23.1655 H   0  0  0  0  0  0
   12.6741    3.2122   22.7302 H   0  0  0  0  0  0
   10.5217   -0.0705   24.4450 H   0  0  0  0  0  0
    8.3649   -2.4280   23.7612 H   0  0  0  0  0  0
   10.5965   -3.4263   23.3866 H   0  0  0  0  0  0
   11.3826   -5.2327   24.9217 H   0  0  0  0  0  0
    7.8916   -5.0539   27.1400 H   0  0  0  0  0  0
  1  2  1  0  0  0
  1 37  1  0  0  0
  1 38  1  0  0  0
  1 39  1  0  0  0
  2  3  1  0  0  0
  2 40  1  0  0  0
  2 41  1  0  0  0
  3  4  1  0  0  0
  4  5  1  0  0  0
  4  7  1  0  0  0
  4 42  1  0  0  0
  5  6  1  0  0  0
  5 43  1  0  0  0
  5 44  1  0  0  0
  6  7  1  0  0  0
  6  8  1  0  0  0
  6  9  1  0  0  0
  7 45  1  0  0  0
  7 46  1  0  0  0
  8  9  1  0  0  0
  8 47  1  0  0  0
  8 48  1  0  0  0
  9 10  1  0  0  0
  9 49  1  0  0  0
 10 11  1  0  0  0
 10 18  1  0  0  0
 11 12  2  0  0  0
 11 13  1  0  0  0
 13 14  2  0  0  0
 13 17  1  0  0  0
 14 15  1  0  0  0
 14 50  1  0  0  0
 15 16  2  0  0  0
 15 51  1  0  0  0
 16 17  1  0  0  0
 16 52  1  0  0  0
 18 19  1  0  0  0
 18 31  1  0  0  0
 18 53  1  0  0  0
 19 20  2  0  0  0
 19 21  1  0  0  0
 21 22  1  0  0  0
 21 54  1  0  0  0
 22 23  1  0  0  0
 22 55  1  0  0  0
 22 56  1  0  0  0
 23 24  1  0  0  0
 23 57  1  0  0  0
 23 58  1  0  0  0
 24 25  2  0  0  0
 24 30  1  0  0  0
 25 26  1  0  0  0
 25 59  1  0  0  0
 26 27  2  0  0  0
 26 60  1  0  0  0
 27 28  1  0  0  0
 27 61  1  0  0  0
 28 29  1  0  0  0
 28 30  2  0  0  0
 30 62  1  0  0  0
 31 32  2  0  0  0
 31 36  1  0  0  0
 32 33  1  0  0  0
 32 63  1  0  0  0
 33 34  2  0  0  0
 33 64  1  0  0  0
 34 35  1  0  0  0
 34 65  1  0  0  0
 35 36  2  0  0  0
 36 66  1  0  0  0
M  END
> <s_m_entry_id>
2838

> <s_m_entry_name>
Compounds-withfrags-for-validation-docking.1872

> <s_m_Source_Path>
/home/rodolpho/data/melina/maestro/glide-dock_XP_5RGK_M-PRO_VALIDATION

> <s_m_Source_File>
glide-dock_XP_5RGK_M-PRO_VALIDATION_pv.maegz

> <i_m_Source_File_Index>
2838

> <CID>
ALP-POS-b0bc6a46-4

> <Potency>
99.5

> <pIC50>
4.00218

> <Source>
Postera

> <smiles>
CCOC1CC2(C1)CC2N(C(=O)c1ccco1)C(C(=O)NCCc1cccc(F)c1)c1cccnc1

> <Outcome>
Inactive

> <StandardizerResult>
Clear Stereo (ID: ClearStereo)
Wedge Clean (ID: WedgeClean)
Mesomerize (ID: Mesomerize)
Tautomerize (ID: Tautomerize)
Aromatize (ID: Aromatize)
Add Explicit Hydrogens (ID: AddExplicitH)
Neutralize (ID: Neutralize)
Clean 2D (ID: Clean2D)

> <chiral flag>
0

> <version>
0

> <i_lp_mmshare_version>
41011

> <i_f3d_flags>
0

> <s_epik_input>
W0NIM11bQ0gyXU9bQ0BIXShbQ0gyXTEpW0NIMl1bQ0BAXTEyW0NIMl1bQ0BIXTJOKEMoPU8pYzNbY0hdW2NIXVtjSF1vMylbQ0BASF0oYzRbY0hdW2NIXVtjSF1uW2NIXTQpQyg9TylbTkhdW0NIMl1bQ0gyXWM1W2NIXVtjSF1bY0hdYyhGKVtjSF01

> <s_epik_cmdline>
J2VwaWtfcHl0aG9uJywgJy1waHQnLCAnMC41JywgJy1waCcsICc3LjQnLCAnLXRuJywgJzgnLCAnLW1hJywgJzIwMCcsICctaW1hZScsICc8aW5maWxlLm1hZT4nLCAnLW9tYWUnLCAnPG91dGZpbGUubWFlPic=

> <r_lp_tautomer_probability>
1.0

> <r_epik_Ionization_Penalty>
8.0E-4

> <r_epik_Ionization_Penalty_Charging>
0.0

> <r_epik_Ionization_Penalty_Neutral>
8.0E-4

> <r_epik_State_Penalty>
0.0

> <r_epik_Charging_Adjusted_Penalty>
0.0

> <i_epik_Tot_Q>
0

> <i_epik_Tot_abs_Q>
0

> <s_lp_Force_Field>
OPLS3

> <r_lp_Energy>
66.2981

> <b_lp_Chiralities_Consistent>
1

> <s_lp_Variant>
ligprep_COVID_compounds-withfrags-smallmolecules-forvalidation.maegz:45-7

> <i_glide_original_lignum>
201

> <s_i_glide_gridfile>
glide-grid_5RGK_M-PRO_COVID

> <i_i_glide_lignum>
201

> <r_i_docking_score>
-3.35376471488354

> <r_i_glide_ligand_efficiency>
-0.0931601309689871

> <r_i_glide_ligand_efficiency_sa>
-0.307607974589651

> <r_i_glide_ligand_efficiency_ln>
-0.731700852536065

> <r_glide_XP_GScore>
-3.35376471488354

> <r_i_glide_gscore>
-3.35376471488354

> <r_i_glide_evdw>
-41.9769477844238

> <r_i_glide_ecoul>
-2.35140633583069

> <r_i_glide_energy>
-44.3283541202545

> <r_i_glide_einternal>
10.6401475337753

> <r_i_glide_emodel>
-57.8234596252441

> <r_glide_XP_HBond>
-0.289786131197636

> <i_i_glide_confnum>
3

> <i_i_glide_posenum>
1

> <r_i_glide_eff_state_penalty>
0.0

> <i_glide_XP_PoseRank>
1

> <MW>
491.22

> <cLogP>
4.31

> <TPSA>
84.67

> <Rotatable Bonds>
10

> <Fraction sp3>
0.39

> <HBA>
5

> <HBD>
1

> <s_epik_Chemistry_Notes>


> <Structure ID>


> <Submission Fragments>


$$$$
ligprep_COVID_compounds-withfrags-smallmolecules-forvalidation.maegz:1
                    3D
 Structure written by MMmdl.
 43 45  0  0  1  0            999 V2000
    6.2169   -0.8799   18.0260 C   0  0  0  0  0  0
    5.4261    0.2819   18.6446 C   0  0  0  0  0  0
    5.5621    1.5382   17.7782 C   0  0  0  0  0  0
    5.8338    0.5725   20.0104 N   0  0  0  0  0  0
    6.2130   -0.2093   21.0979 C   0  0  0  0  0  0
    6.2829   -1.5370   21.0647 N   0  0  0  0  0  0
    6.7750   -1.8415   22.3158 C   0  0  0  0  0  0
    7.1738   -3.0818   22.8640 C   0  0  0  0  0  0
    7.6707   -3.1572   24.1789 C   0  0  0  0  0  0
    7.7886   -1.9818   24.9547 C   0  0  0  0  0  0
    7.4400   -0.7324   24.4102 C   0  0  0  0  0  0
    6.9422   -0.6618   23.0967 C   0  0  0  0  0  0
    6.5791    0.3838   22.2606 N   0  0  0  0  0  0
    6.6658    1.8492   22.5635 C   0  0  1  0  0  0
    5.4837    2.3354   23.3830 C   0  0  2  0  0  0
    4.3720    2.6363   22.5707 O   0  0  0  0  0  0
    6.0895    3.6112   23.9889 C   0  0  1  0  0  0
    5.6609    3.8367   25.3197 O   0  0  0  0  0  0
    7.6189    3.3776   23.9509 C   0  0  2  0  0  0
    8.3705    4.4002   23.0768 C   0  0  0  0  0  0
    9.7533    4.3756   23.3708 O   0  0  0  0  0  0
    7.7681    2.0857   23.3708 O   0  0  0  0  0  0
    8.3751   -2.0419   26.5707 Cl  0  0  0  0  0  0
    8.1399   -4.6946   24.8122 Cl  0  0  0  0  0  0
    5.9752   -0.9797   16.9708 H   0  0  0  0  0  0
    5.9607   -1.8330   18.4890 H   0  0  0  0  0  0
    7.2940   -0.7356   18.1249 H   0  0  0  0  0  0
    4.3748    0.0039   18.6771 H   0  0  0  0  0  0
    5.1751    1.3714   16.7771 H   0  0  0  0  0  0
    6.6044    1.8363   17.6771 H   0  0  0  0  0  0
    5.0033    2.3760   18.1938 H   0  0  0  0  0  0
    5.7722    1.5587   20.2205 H   0  0  0  0  0  0
    7.0817   -3.9748   22.2664 H   0  0  0  0  0  0
    7.5749    0.1661   24.9924 H   0  0  0  0  0  0
    6.7931    2.3591   21.6082 H   0  0  0  0  0  0
    5.2408    1.5919   24.1400 H   0  0  0  0  0  0
    4.6471    3.3523   21.9924 H   0  0  0  0  0  0
    5.8284    4.4856   23.3923 H   0  0  0  0  0  0
    6.0022    3.1417   25.8658 H   0  0  0  0  0  0
    8.0416    3.3643   24.9573 H   0  0  0  0  0  0
    8.2122    4.2068   22.0160 H   0  0  0  0  0  0
    8.0095    5.4104   23.2723 H   0  0  0  0  0  0
   10.2070    4.6856   22.5978 H   0  0  0  0  0  0
  1  2  1  0  0  0
  1 25  1  0  0  0
  1 26  1  0  0  0
  1 27  1  0  0  0
  2  3  1  0  0  0
  2  4  1  0  0  0
  2 28  1  0  0  0
  3 29  1  0  0  0
  3 30  1  0  0  0
  3 31  1  0  0  0
  4  5  1  0  0  0
  4 32  1  0  0  0
  5  6  2  0  0  0
  5 13  1  0  0  0
  6  7  1  0  0  0
  7  8  2  0  0  0
  7 12  1  0  0  0
  8  9  1  0  0  0
  8 33  1  0  0  0
  9 10  2  0  0  0
  9 24  1  0  0  0
 10 11  1  0  0  0
 10 23  1  0  0  0
 11 12  2  0  0  0
 11 34  1  0  0  0
 12 13  1  0  0  0
 13 14  1  0  0  0
 14 15  1  0  0  0
 14 22  1  0  0  0
 14 35  1  0  0  0
 15 16  1  0  0  0
 15 17  1  0  0  0
 15 36  1  0  0  0
 16 37  1  0  0  0
 17 18  1  0  0  0
 17 19  1  0  0  0
 17 38  1  0  0  0
 18 39  1  0  0  0
 19 20  1  0  0  0
 19 22  1  0  0  0
 19 40  1  0  0  0
 20 21  1  0  0  0
 20 41  1  0  0  0
 20 42  1  0  0  0
 21 43  1  0  0  0
M  END
> <s_m_entry_id>
2865

> <s_m_entry_name>
Compounds-withfrags-for-validation-docking.1916

> <s_m_Source_Path>
/home/rodolpho/data/melina/maestro/glide-dock_XP_5RGK_M-PRO_VALIDATION

> <s_m_Source_File>
glide-dock_XP_5RGK_M-PRO_VALIDATION_pv.maegz

> <i_m_Source_File_Index>
2865

> <CID>
Maribavir

> <pIC50>
4.30103

> <Source>
https://doi.org/10.1101/2020.03.23.004580

> <smiles>
C(C(C([H])([H])[H])(N(C1=NC2=C(C(=C(C([H])=C2N1C1(C(O[H])([H])C(O[H])([H])C(C(O[H])([H])[H])([H])O1)[H])Cl)Cl)[H])[H])[H])([H])([H])[H]

> <Outcome>
Inactive

> <StandardizerResult>
Clear Stereo (ID: ClearStereo)
Wedge Clean (ID: WedgeClean)
Mesomerize (ID: Mesomerize)
Tautomerize (ID: Tautomerize)
Aromatize (ID: Aromatize)
Add Explicit Hydrogens (ID: AddExplicitH)
Neutralize (ID: Neutralize)
Clean 2D (ID: Clean2D)

> <chiral flag>
0

> <version>
0

> <i_lp_mmshare_version>
41011

> <i_f3d_flags>
0

> <s_epik_input>
W2NIXTFjKENsKWMoQ2wpW2NIXWMoYzEyKW4oYyhuMilbTkhdW0NIXShbQ0gzXSlbQ0gzXSlbQ0BIXTNbQ0BIXShbT0hdKVtDQEBIXShbT0hdKVtDQEBIXShPMylbQ0gyXVtPSF0=

> <s_epik_cmdline>
J2VwaWtfcHl0aG9uJywgJy1waHQnLCAnMC41JywgJy1waCcsICc3LjQnLCAnLXRuJywgJzgnLCAnLW1hJywgJzIwMCcsICctaW1hZScsICc8aW5maWxlLm1hZT4nLCAnLW9tYWUnLCAnPG91dGZpbGUubWFlPic=

> <r_epik_Ionization_Penalty>
0.01

> <r_epik_Ionization_Penalty_Charging>
0.0

> <r_epik_Ionization_Penalty_Neutral>
0.01

> <r_epik_State_Penalty>
0.0076

> <r_epik_Charging_Adjusted_Penalty>
0.00760364

> <i_epik_Tot_Q>
0

> <i_epik_Tot_abs_Q>
0

> <s_lp_Force_Field>
OPLS3

> <r_lp_Energy>
15.2605

> <b_lp_Chiralities_Consistent>
1

> <s_lp_Variant>
ligprep_COVID_compounds-withfrags-smallmolecules-forvalidation.maegz:1-9

> <i_glide_original_lignum>
9

> <s_i_glide_gridfile>
glide-grid_5RGK_M-PRO_COVID

> <i_i_glide_lignum>
9

> <r_i_docking_score>
-3.32315576016946

> <r_i_glide_ligand_efficiency>
-0.138464823340394

> <r_i_glide_ligand_efficiency_sa>
-0.399401663507643

> <r_i_glide_ligand_efficiency_ln>
-0.795383663090026

> <r_glide_XP_GScore>
-3.33075940016946

> <r_i_glide_gscore>
-3.33075940016946

> <r_i_glide_evdw>
-27.0986824035645

> <r_i_glide_ecoul>
-12.2103366851807

> <r_i_glide_energy>
-39.3090190887451

> <r_i_glide_einternal>
1.63917446136475

> <r_i_glide_emodel>
-40.8997138246277

> <r_glide_XP_HBond>
-0.48

> <i_i_glide_confnum>
1

> <i_i_glide_posenum>
37

> <r_i_glide_eff_state_penalty>
0.00760364

> <i_glide_XP_PoseRank>
1

> <s_epik_Chemistry_Notes>
This compound contains an acetal/aminal-like group ( X-CH(R)-Y where X, Y are N, S, or O) that may be acid/base labile, releasing an aldehyde.

> <Potency>
50.0

> <r_lp_tautomer_probability>


> <MW>


> <cLogP>


> <TPSA>


> <Rotatable Bonds>


> <Fraction sp3>


> <HBA>


> <HBD>


> <Structure ID>


> <Submission Fragments>


$$$$
ligprep_COVID_compounds-withfrags-smallmolecules-forvalidation.maegz:6
                    3D
 Structure written by MMmdl.
 57 60  0  0  1  0            999 V2000
    5.1240    3.5081   24.1062 C   0  0  0  0  0  0
    4.1667    2.4999   23.4229 C   0  0  2  0  0  0
    4.9447    1.4920   22.5516 C   0  0  0  0  0  0
    6.0208    0.7833   23.1346 C   0  0  0  0  0  0
    6.7730   -0.1350   22.3879 C   0  0  0  0  0  0
    6.4851   -0.3341   21.0295 C   0  0  0  0  0  0
    5.4305    0.3604   20.4185 C   0  0  0  0  0  0
    5.2234    0.1373   19.0852 O   0  0  0  0  0  0
    4.6176    1.2429   21.1836 C   0  0  0  0  0  0
    3.3878    1.8364   20.5838 C   0  0  0  0  0  0
    3.1749    1.8379   19.3708 O   0  0  0  0  0  0
    2.4214    2.3708   21.5600 C   0  0  0  0  0  0
    3.0533    3.2532   22.6206 C   0  0  1  0  0  0
    1.9917    4.0523   23.4287 C   0  0  2  0  0  0
    0.7513    3.1941   23.7825 C   0  0  1  0  0  0
   -0.2606    3.8586   24.7565 C   0  0  2  0  0  0
    0.4442    4.1377   26.0547 N   0  3  0  0  0  0
    0.0707    5.4237   26.6919 C   0  0  0  0  0  0
    0.4865    3.0115   27.0227 C   0  0  0  0  0  0
   -1.5906    3.0508   24.9130 C   0  0  0  0  0  0
   -2.2888    3.6491   25.7668 O   0  5  0  0  0  0
   -1.8174    1.8772   24.1682 C   0  0  0  0  0  0
   -3.0465    1.1027   24.4637 C   0  0  0  0  0  0
   -3.2814    0.0749   23.6471 N   0  0  0  0  0  0
   -3.8498    1.3148   25.3689 O   0  0  0  0  0  0
   -0.8459    1.4706   23.1018 C   0  0  0  0  0  0
   -0.7516    0.3198   22.6637 O   0  0  0  0  0  0
    0.0632    2.5905   22.5382 C   0  0  2  0  0  0
    1.0942    2.1135   21.5010 C   0  0  0  0  0  0
    0.5051    1.4362   20.5016 O   0  0  0  0  0  0
   -0.7499    3.5591   21.9016 O   0  0  0  0  0  0
    1.5742    5.1817   22.6812 O   0  0  0  0  0  0
    3.5576    1.8030   24.4902 O   0  0  0  0  0  0
    5.7041    4.0617   23.3721 H   0  0  0  0  0  0
    5.8487    3.0364   24.7663 H   0  0  0  0  0  0
    4.5955    4.2402   24.7135 H   0  0  0  0  0  0
    6.2822    0.9276   24.1706 H   0  0  0  0  0  0
    7.5768   -0.6791   22.8578 H   0  0  0  0  0  0
    7.0858   -1.0225   20.4532 H   0  0  0  0  0  0
    4.5221    0.6836   18.7478 H   0  0  0  0  0  0
    3.5753    4.0054   22.0302 H   0  0  0  0  0  0
    2.4505    4.4433   24.3339 H   0  0  0  0  0  0
    1.1507    2.3412   24.3292 H   0  0  0  0  0  0
   -0.5227    4.8193   24.3089 H   0  0  0  0  0  0
   -0.9438    5.4059   27.0912 H   0  0  0  0  0  0
    0.1449    6.2476   25.9809 H   0  0  0  0  0  0
    0.7469    5.6457   27.5184 H   0  0  0  0  0  0
   -0.4794    2.8481   27.5025 H   0  0  0  0  0  0
    1.2109    3.2203   27.8104 H   0  0  0  0  0  0
    0.7857    2.0798   26.5430 H   0  0  0  0  0  0
   -2.5953   -0.1396   22.9341 H   0  0  0  0  0  0
   -4.1034   -0.4934   23.7807 H   0  0  0  0  0  0
   -0.4277    1.4681   20.6634 H   0  0  0  0  0  0
   -0.1974    4.3051   21.7044 H   0  0  0  0  0  0
    2.3423    5.6397   22.3651 H   0  0  0  0  0  0
    3.0927    1.0641   24.1236 H   0  0  0  0  0  0
    1.4044    4.2782   25.7807 H   0  0  0  0  0  0
  1  2  1  0  0  0
  1 34  1  0  0  0
  1 35  1  0  0  0
  1 36  1  0  0  0
  2  3  1  0  0  0
  2 33  1  0  0  0
  2 13  1  0  0  0
  3  4  2  0  0  0
  3  9  1  0  0  0
  4  5  1  0  0  0
  4 37  1  0  0  0
  5  6  2  0  0  0
  5 38  1  0  0  0
  6  7  1  0  0  0
  6 39  1  0  0  0
  7  8  1  0  0  0
  7  9  2  0  0  0
  8 40  1  0  0  0
  9 10  1  0  0  0
 10 11  2  0  0  0
 10 12  1  0  0  0
 12 13  1  0  0  0
 12 29  2  0  0  0
 13 14  1  0  0  0
 13 41  1  0  0  0
 14 15  1  0  0  0
 14 32  1  0  0  0
 14 42  1  0  0  0
 15 16  1  0  0  0
 15 28  1  0  0  0
 15 43  1  0  0  0
 16 17  1  0  0  0
 16 20  1  0  0  0
 16 44  1  0  0  0
 17 18  1  0  0  0
 17 19  1  0  0  0
 17 57  1  0  0  0
 18 45  1  0  0  0
 18 46  1  0  0  0
 18 47  1  0  0  0
 19 48  1  0  0  0
 19 49  1  0  0  0
 19 50  1  0  0  0
 20 21  1  0  0  0
 20 22  2  0  0  0
 22 23  1  0  0  0
 22 26  1  0  0  0
 23 24  1  0  0  0
 23 25  2  0  0  0
 24 51  1  0  0  0
 24 52  1  0  0  0
 26 27  2  0  0  0
 26 28  1  0  0  0
 28 29  1  0  0  0
 28 31  1  0  0  0
 29 30  1  0  0  0
 30 53  1  0  0  0
 31 54  1  0  0  0
 32 55  1  0  0  0
 33 56  1  0  0  0
M  CHG  2  17   1  21  -1
M  END
> <s_m_entry_id>
2874

> <s_m_entry_name>
Compounds-withfrags-for-validation-docking.1911

> <s_m_Source_Path>
/home/rodolpho/data/melina/maestro/glide-dock_XP_5RGK_M-PRO_VALIDATION

> <s_m_Source_File>
glide-dock_XP_5RGK_M-PRO_VALIDATION_pv.maegz

> <i_m_Source_File_Index>
2874

> <CID>
Oxitetracyclin

> <Potency>
15.15

> <pIC50>
4.81959

> <Source>
https://doi.org/10.1101/2020.03.23.004580

> <smiles>
C(C1(C2=C(C(=C(C(O[H])=C2C(O[H])=C2C1(C(C1(C(N(C([H])([H])[H])C([H])([H])[H])([H])C(=O)C(=C(N([H])[H])O[H])C(=O)C1(C2=O)O[H])[H])(O[H])[H])[H])[H])[H])[H])O[H])([H])([H])[H]

> <Outcome>
Inactive

> <StandardizerResult>
Clear Stereo (ID: ClearStereo)
Wedge Clean (ID: WedgeClean)
Mesomerize (ID: Mesomerize)
Tautomerize (ID: Tautomerize)
Aromatize (ID: Aromatize)
Add Explicit Hydrogens (ID: AddExplicitH)
Neutralize (ID: Neutralize)
Clean 2D (ID: Clean2D)

> <chiral flag>
0

> <version>
0

> <i_lp_mmshare_version>
41011

> <i_f3d_flags>
3

> <s_epik_input>
W09IXWMxW2NIXVtjSF1bY0hdYyhbQ0BdMihbQ0gzXSlbT0hdKWMxQyg9TylDKD1DM1tPSF0pW0NAQEhdMltDQEBIXShbT0hdKVtDQEhdKFtDQEBdMzRbT0hdKVtDQEhdKE4oW0NIM10pW0NIM10pQyg9TylbQ0BIXShDND1PKUMoPU8pW05IMl0=

> <s_epik_cmdline>
J2VwaWtfcHl0aG9uJywgJy1waHQnLCAnMC41JywgJy1waCcsICc3LjQnLCAnLXRuJywgJzgnLCAnLW1hJywgJzIwMCcsICctaW1hZScsICc8aW5maWxlLm1hZT4nLCAnLW9tYWUnLCAnPG91dGZpbGUubWFlPic=

> <r_epik_Ionization_Penalty>
0.6144

> <r_epik_Ionization_Penalty_Charging>
0.5087

> <r_epik_Ionization_Penalty_Neutral>
0.1057

> <r_epik_State_Penalty>
0.5157

> <r_epik_Charging_Adjusted_Penalty>
1.02439

> <i_epik_Tot_Q>
0

> <i_epik_Tot_abs_Q>
2

> <s_lp_Force_Field>
OPLS3

> <r_lp_Energy>
52.4445

> <b_lp_Chiralities_Consistent>
0

> <s_lp_Variant>
ligprep_COVID_compounds-withfrags-smallmolecules-forvalidation.maegz:6-40

> <i_glide_original_lignum>
92

> <s_i_glide_gridfile>
glide-grid_5RGK_M-PRO_COVID

> <i_i_glide_lignum>
92

> <r_i_docking_score>
-3.31676744351566

> <r_i_glide_ligand_efficiency>
-0.100508104348959

> <r_i_glide_ligand_efficiency_sa>
-0.322383194766351

> <r_i_glide_ligand_efficiency_ln>
-0.737631906135155

> <r_glide_XP_GScore>
-3.83247444351566

> <r_i_glide_gscore>
-3.83247444351566

> <r_i_glide_evdw>
-17.9297122955322

> <r_i_glide_ecoul>
-8.47400379180908

> <r_i_glide_energy>
-26.4037160873413

> <r_i_glide_einternal>
1.14275181293488

> <r_i_glide_emodel>
-26.8394360119962

> <r_glide_XP_HBond>
-2.105

> <i_i_glide_confnum>
1

> <i_i_glide_posenum>
27

> <r_i_glide_eff_state_penalty>
0.515707

> <i_glide_XP_PoseRank>
1

> <r_lp_tautomer_probability>


> <s_epik_Chemistry_Notes>


> <MW>


> <cLogP>


> <TPSA>


> <Rotatable Bonds>


> <Fraction sp3>


> <HBA>


> <HBD>


> <Structure ID>


> <Submission Fragments>


$$$$
ligprep_COVID_compounds-withfrags-smallmolecules-forvalidation.maegz:2
                    3D
 Structure written by MMmdl.
 33 33  0  0  1  0            999 V2000
    7.1173   -5.0731   27.7554 C   0  0  0  0  0  0
    8.1260   -4.7673   26.7003 C   0  0  0  0  0  0
    8.5762   -3.5766   26.1631 C   0  0  0  0  0  0
    8.1821   -2.1727   26.5509 C   0  0  0  0  0  0
    8.3737   -0.9817   25.1890 S   0  0  0  0  0  0
    6.9071   -1.3519   24.1865 C   0  0  0  0  0  0
    6.6855   -0.2610   23.1295 C   0  0  0  0  0  0
    5.5751   -0.5636   22.2397 N   0  0  0  0  0  0
    5.5852   -0.0371   20.9633 C   0  0  0  0  0  0
    5.1426    1.2872   20.9257 N   0  0  0  0  0  0
    4.2292    1.8325   19.9313 C   0  0  0  0  0  0
    5.9760   -0.8034   19.9912 N   0  0  0  0  0  0
    6.1709   -0.2560   18.7976 C   0  0  0  0  0  0
    6.3743    0.2385   17.7707 N   0  0  0  0  0  0
    9.5614   -3.8460   25.2036 N   0  0  0  0  0  0
    9.6748   -5.1701   25.2053 C   0  0  0  0  0  0
    8.8529   -5.7641   26.0728 N   0  0  0  0  0  0
    6.6837   -4.1640   28.1668 H   0  0  0  0  0  0
    7.5727   -5.6339   28.5719 H   0  0  0  0  0  0
    6.3054   -5.6754   27.3477 H   0  0  0  0  0  0
    8.8069   -1.8211   27.3706 H   0  0  0  0  0  0
    7.1536   -2.1366   26.9112 H   0  0  0  0  0  0
    7.0413   -2.3290   23.7194 H   0  0  0  0  0  0
    6.0350   -1.4202   24.8380 H   0  0  0  0  0  0
    6.4959    0.6955   23.6183 H   0  0  0  0  0  0
    7.5928   -0.1349   22.5407 H   0  0  0  0  0  0
    5.3267   -1.5452   22.3274 H   0  0  0  0  0  0
    3.6358    2.6369   20.3661 H   0  0  0  0  0  0
    3.5483    1.0664   19.5603 H   0  0  0  0  0  0
    4.7837    2.2359   19.0846 H   0  0  0  0  0  0
    8.8018   -6.7585   26.2728 H   0  0  0  0  0  0
   10.3714   -5.7092   24.5796 H   0  0  0  0  0  0
    5.2030    1.8840   21.7418 H   0  0  0  0  0  0
  1 18  1  0  0  0
  1 19  1  0  0  0
  1 20  1  0  0  0
  1  2  1  0  0  0
  2  3  2  0  0  0
  2 17  1  0  0  0
  3  4  1  0  0  0
  3 15  1  0  0  0
  4  5  1  0  0  0
  4 21  1  0  0  0
  4 22  1  0  0  0
  5  6  1  0  0  0
  6  7  1  0  0  0
  6 23  1  0  0  0
  6 24  1  0  0  0
  7  8  1  0  0  0
  7 25  1  0  0  0
  7 26  1  0  0  0
  8  9  1  0  0  0
  8 27  1  0  0  0
  9 10  1  0  0  0
  9 12  2  0  0  0
 10 11  1  0  0  0
 10 33  1  0  0  0
 11 28  1  0  0  0
 11 29  1  0  0  0
 11 30  1  0  0  0
 12 13  1  0  0  0
 13 14  3  0  0  0
 15 16  2  0  0  0
 16 17  1  0  0  0
 16 32  1  0  0  0
 17 31  1  0  0  0
M  END
> <s_m_entry_id>
2879

> <s_m_entry_name>
Compounds-withfrags-for-validation-docking.1915

> <s_m_Source_Path>
/home/rodolpho/data/melina/maestro/glide-dock_XP_5RGK_M-PRO_VALIDATION

> <s_m_Source_File>
glide-dock_XP_5RGK_M-PRO_VALIDATION_pv.maegz

> <i_m_Source_File_Index>
2879

> <CID>
Cimetidine

> <pIC50>
4.30103

> <Source>
https://doi.org/10.1101/2020.03.23.004580

> <smiles>
C(C1=C(C(SC(C(N=C(N(C([H])([H])[H])[H])N(C#N)[H])([H])[H])([H])[H])([H])[H])N([H])C([H])=N1)([H])([H])[H]

> <Outcome>
Inactive

> <StandardizerResult>
Clear Stereo (ID: ClearStereo)
Wedge Clean (ID: WedgeClean)
Mesomerize (ID: Mesomerize)
Tautomerize (ID: Tautomerize)
Aromatize (ID: Aromatize)
Add Explicit Hydrogens (ID: AddExplicitH)
Neutralize (ID: Neutralize)
Clean 2D (ID: Clean2D)

> <chiral flag>
0

> <version>
0

> <i_lp_mmshare_version>
41011

> <i_f3d_flags>
1

> <s_epik_input>
bjFbY0hdW25IXWMoYzFbQ0gzXSlbQ0gyXVNbQ0gyXVtDSDJdW05IXS9DKD1OXFtDSDNdKVtOSF1DI04=

> <s_epik_cmdline>
J2VwaWtfcHl0aG9uJywgJy1waHQnLCAnMC41JywgJy1waCcsICc3LjQnLCAnLXRuJywgJzgnLCAnLW1hJywgJzIwMCcsICctaW1hZScsICc8aW5maWxlLm1hZT4nLCAnLW9tYWUnLCAnPG91dGZpbGUubWFlPic=

> <r_lp_tautomer_probability>
0.5

> <r_epik_Ionization_Penalty>
0.1309

> <r_epik_Ionization_Penalty_Charging>
0.1202

> <r_epik_Ionization_Penalty_Neutral>
0.0106

> <r_epik_State_Penalty>
0.4107

> <r_epik_Charging_Adjusted_Penalty>
0.530894

> <i_epik_Tot_Q>
0

> <i_epik_Tot_abs_Q>
0

> <s_lp_Force_Field>
OPLS3

> <r_lp_Energy>
6.98286

> <b_lp_Chiralities_Consistent>
1

> <s_lp_Variant>
ligprep_COVID_compounds-withfrags-smallmolecules-forvalidation.maegz:2-2

> <i_glide_original_lignum>
18

> <s_i_glide_gridfile>
glide-grid_5RGK_M-PRO_COVID

> <i_i_glide_lignum>
18

> <r_i_docking_score>
-3.31288605645539

> <r_i_glide_ligand_efficiency>
-0.194875650379729

> <r_i_glide_ligand_efficiency_sa>
-0.501080171815725

> <r_i_glide_ligand_efficiency_ln>
-0.864258197783945

> <r_glide_XP_GScore>
-3.72356605645539

> <r_i_glide_gscore>
-3.72356605645539

> <r_i_glide_evdw>
-33.6849708557129

> <r_i_glide_ecoul>
-15.5327959060669

> <r_i_glide_energy>
-49.2177667617798

> <r_i_glide_einternal>
3.10218262672424

> <r_i_glide_emodel>
-59.829857323979

> <r_glide_XP_HBond>
-1.79751562744738

> <i_i_glide_confnum>
1

> <i_i_glide_posenum>
3

> <r_i_glide_eff_state_penalty>
0.41068

> <i_glide_XP_PoseRank>
1

> <s_epik_Chemistry_Notes>
This compound has an imine and may undergo hydrolysis.

> <Potency>
50.0

> <MW>


> <cLogP>


> <TPSA>


> <Rotatable Bonds>


> <Fraction sp3>


> <HBA>


> <HBD>


> <Structure ID>


> <Submission Fragments>


$$$$
ligprep_COVID_compounds-withfrags-smallmolecules-forvalidation.maegz:23
                    3D
 Structure written by MMmdl.
 74 77  0  0  1  0            999 V2000
   -1.9357    4.8965   22.8286 C   0  0  0  0  0  0
   -1.3819    4.0553   21.8287 O   0  0  0  0  0  0
   -0.4373    3.1925   22.3161 C   0  0  0  0  0  0
   -0.8151    2.0418   23.0337 C   0  0  0  0  0  0
    0.0715    1.1771   23.5525 N   0  0  0  0  0  0
    1.3789    1.4453   23.3752 C   0  0  0  0  0  0
    1.9023    2.5488   22.6584 C   0  0  0  0  0  0
    3.3918    2.7700   22.4957 C   0  0  1  0  0  0
    3.9380    3.2627   23.8510 C   0  0  0  0  0  0
    3.5480    2.8033   24.9271 O   0  0  0  0  0  0
    4.8773    4.2049   23.7706 N   0  0  0  0  0  0
    5.4578    4.8890   24.9134 C   0  0  0  0  0  0
    6.5923    5.8420   24.5092 C   0  0  0  0  0  0
    7.9483    5.2247   24.1814 C   0  0  0  0  0  0
    8.9366    6.0735   23.6420 C   0  0  0  0  0  0
   10.2250    5.5836   23.3715 C   0  0  0  0  0  0
   10.5397    4.2398   23.6231 C   0  0  0  0  0  0
    9.5689    3.3870   24.1719 C   0  0  0  0  0  0
    9.9021    2.1088   24.4599 F   0  0  0  0  0  0
    8.2732    3.8702   24.4441 C   0  0  0  0  0  0
    4.1162    1.6244   21.8881 N   0  0  0  0  0  0
    3.9760    1.4382   20.5446 C   0  0  0  0  0  0
    3.0679    1.9722   19.9047 O   0  0  0  0  0  0
    4.8978    0.5689   19.7838 C   0  0  0  0  0  0
    5.1758    0.5728   18.4433 C   0  0  0  0  0  0
    6.0015   -0.5547   18.1957 C   0  0  0  0  0  0
    6.2133   -1.1282   19.4159 C   0  0  0  0  0  0
    5.5367   -0.4733   20.3818 O   0  0  0  0  0  0
    5.0821    0.9108   22.6675 C   0  0  0  0  0  0
    6.4570    1.2284   22.6374 C   0  0  0  0  0  0
    7.3741    0.4535   23.3811 C   0  0  0  0  0  0
    6.9553   -0.6501   24.1627 C   0  0  0  0  0  0
    7.9642   -1.4334   25.0290 C   0  0  0  0  0  0
    9.1776   -1.8817   24.1935 C   0  0  0  0  0  0
    7.3554   -2.7105   25.6517 C   0  0  0  0  0  0
    8.4406   -0.5300   26.1841 C   0  0  0  0  0  0
    5.5770   -0.9605   24.1740 C   0  0  0  0  0  0
    4.6620   -0.1640   23.4613 C   0  0  0  0  0  0
    0.9382    3.4420   22.1117 C   0  0  0  0  0  0
    1.3589    4.6793   21.3289 C   0  0  0  0  0  0
   -2.7864    4.4154   23.3164 H   0  0  0  0  0  0
   -2.2845    5.8208   22.3670 H   0  0  0  0  0  0
   -1.2025    5.1697   23.5916 H   0  0  0  0  0  0
   -1.8567    1.8137   23.2000 H   0  0  0  0  0  0
    2.0387    0.7513   23.8601 H   0  0  0  0  0  0
    3.5738    3.6039   21.8159 H   0  0  0  0  0  0
    5.1851    4.4461   22.8103 H   0  0  0  0  0  0
    4.6560    5.4808   25.3563 H   0  0  0  0  0  0
    5.7750    4.1885   25.6868 H   0  0  0  0  0  0
    6.2625    6.4424   23.6620 H   0  0  0  0  0  0
    6.7577    6.5390   25.3292 H   0  0  0  0  0  0
    8.7110    7.1106   23.4428 H   0  0  0  0  0  0
   10.9798    6.2368   22.9716 H   0  0  0  0  0  0
   11.5302    3.8698   23.4115 H   0  0  0  0  0  0
    7.5500    3.1841   24.8599 H   0  0  0  0  0  0
    4.7764    1.2715   17.7236 H   0  0  0  0  0  0
    6.3768   -0.9101   17.2476 H   0  0  0  0  0  0
    6.7670   -1.9818   19.7743 H   0  0  0  0  0  0
    6.8148    2.0552   22.0409 H   0  0  0  0  0  0
    8.4167    0.7169   23.3487 H   0  0  0  0  0  0
    9.8812   -2.4581   24.7940 H   0  0  0  0  0  0
    9.7304   -1.0372   23.7893 H   0  0  0  0  0  0
    8.8640   -2.5245   23.3717 H   0  0  0  0  0  0
    6.9708   -3.3925   24.8906 H   0  0  0  0  0  0
    6.5433   -2.4766   26.3413 H   0  0  0  0  0  0
    8.0992   -3.2609   26.2286 H   0  0  0  0  0  0
    9.1496   -1.0470   26.8325 H   0  0  0  0  0  0
    7.5987   -0.2181   26.8034 H   0  0  0  0  0  0
    8.9239    0.3769   25.8257 H   0  0  0  0  0  0
    5.1744   -1.7801   24.7470 H   0  0  0  0  0  0
    3.6286   -0.4473   23.5002 H   0  0  0  0  0  0
    1.8702    4.3894   20.4142 H   0  0  0  0  0  0
    2.0396    5.2938   21.9155 H   0  0  0  0  0  0
    0.5187    5.3114   21.0482 H   0  0  0  0  0  0
  1  2  1  0  0  0
  1 41  1  0  0  0
  1 42  1  0  0  0
  1 43  1  0  0  0
  2  3  1  0  0  0
  3  4  2  0  0  0
  3 39  1  0  0  0
  4  5  1  0  0  0
  4 44  1  0  0  0
  5  6  2  0  0  0
  6  7  1  0  0  0
  6 45  1  0  0  0
  7  8  1  0  0  0
  7 39  2  0  0  0
  8  9  1  0  0  0
  8 21  1  0  0  0
  8 46  1  0  0  0
  9 10  2  0  0  0
  9 11  1  0  0  0
 11 12  1  0  0  0
 11 47  1  0  0  0
 12 13  1  0  0  0
 12 48  1  0  0  0
 12 49  1  0  0  0
 13 14  1  0  0  0
 13 50  1  0  0  0
 13 51  1  0  0  0
 14 15  2  0  0  0
 14 20  1  0  0  0
 15 16  1  0  0  0
 15 52  1  0  0  0
 16 17  2  0  0  0
 16 53  1  0  0  0
 17 18  1  0  0  0
 17 54  1  0  0  0
 18 19  1  0  0  0
 18 20  2  0  0  0
 20 55  1  0  0  0
 21 22  1  0  0  0
 21 29  1  0  0  0
 22 23  2  0  0  0
 22 24  1  0  0  0
 24 25  2  0  0  0
 24 28  1  0  0  0
 25 26  1  0  0  0
 25 56  1  0  0  0
 26 27  2  0  0  0
 26 57  1  0  0  0
 27 28  1  0  0  0
 27 58  1  0  0  0
 29 30  2  0  0  0
 29 38  1  0  0  0
 30 31  1  0  0  0
 30 59  1  0  0  0
 31 32  2  0  0  0
 31 60  1  0  0  0
 32 33  1  0  0  0
 32 37  1  0  0  0
 33 34  1  0  0  0
 33 35  1  0  0  0
 33 36  1  0  0  0
 34 61  1  0  0  0
 34 62  1  0  0  0
 34 63  1  0  0  0
 35 64  1  0  0  0
 35 65  1  0  0  0
 35 66  1  0  0  0
 36 67  1  0  0  0
 36 68  1  0  0  0
 36 69  1  0  0  0
 37 38  2  0  0  0
 37 70  1  0  0  0
 38 71  1  0  0  0
 39 40  1  0  0  0
 40 72  1  0  0  0
 40 73  1  0  0  0
 40 74  1  0  0  0
M  END
> <s_m_entry_id>
2897

> <s_m_entry_name>
Compounds-withfrags-for-validation-docking.1894

> <s_m_Source_Path>
/home/rodolpho/data/melina/maestro/glide-dock_XP_5RGK_M-PRO_VALIDATION

> <s_m_Source_File>
glide-dock_XP_5RGK_M-PRO_VALIDATION_pv.maegz

> <i_m_Source_File_Index>
2897

> <CID>
ALP-POS-02c6a514-13

> <Potency>
99.5

> <pIC50>
4.00218

> <Source>
Postera

> <smiles>
COc1cncc(C(C(=O)NCCc2cccc(F)c2)N(C(=O)c2ccco2)c2ccc(C(C)(C)C)cc2)c1C

> <Outcome>
Inactive

> <StandardizerResult>
Clear Stereo (ID: ClearStereo)
Wedge Clean (ID: WedgeClean)
Mesomerize (ID: Mesomerize)
Tautomerize (ID: Tautomerize)
Aromatize (ID: Aromatize)
Add Explicit Hydrogens (ID: AddExplicitH)
Neutralize (ID: Neutralize)
Clean 2D (ID: Clean2D)

> <chiral flag>
0

> <version>
0

> <i_lp_mmshare_version>
41011

> <i_f3d_flags>
0

> <s_epik_input>
W0NIM11PYzFbY0hdbltjSF1jKGMxW0NIM10pW0NASF0oTihDKD1PKWMyW2NIXVtjSF1bY0hdbzIpYzNbY0hdW2NIXWMoQyhbQ0gzXSkoW0NIM10pW0NIM10pW2NIXVtjSF0zKUMoPU8pW05IXVtDSDJdW0NIMl1jNFtjSF1bY0hdW2NIXWMoRilbY0hdNA==

> <s_epik_cmdline>
J2VwaWtfcHl0aG9uJywgJy1waHQnLCAnMC41JywgJy1waCcsICc3LjQnLCAnLXRuJywgJzgnLCAnLW1hJywgJzIwMCcsICctaW1hZScsICc8aW5maWxlLm1hZT4nLCAnLW9tYWUnLCAnPG91dGZpbGUubWFlPic=

> <r_lp_tautomer_probability>
1.0

> <r_epik_Ionization_Penalty>
0.0014

> <r_epik_Ionization_Penalty_Charging>
0.0

> <r_epik_Ionization_Penalty_Neutral>
0.0014

> <r_epik_State_Penalty>
0.0

> <r_epik_Charging_Adjusted_Penalty>
0.0

> <i_epik_Tot_Q>
0

> <i_epik_Tot_abs_Q>
0

> <s_lp_Force_Field>
OPLS3

> <r_lp_Energy>
81.1181

> <b_lp_Chiralities_Consistent>
1

> <s_lp_Variant>
ligprep_COVID_compounds-withfrags-smallmolecules-forvalidation.maegz:23-2

> <i_glide_original_lignum>
140

> <s_i_glide_gridfile>
glide-grid_5RGK_M-PRO_COVID

> <i_i_glide_lignum>
140

> <r_i_docking_score>
-3.29423243176978

> <r_i_glide_ligand_efficiency>
-0.0823558107942446

> <r_i_glide_ligand_efficiency_sa>
-0.281652910708103

> <r_i_glide_ligand_efficiency_ln>
-0.702562832763697

> <r_glide_XP_GScore>
-3.29423243176978

> <r_i_glide_gscore>
-3.29423243176978

> <r_i_glide_evdw>
-32.1589660644531

> <r_i_glide_ecoul>
-10.3889789581299

> <r_i_glide_energy>
-42.547945022583

> <r_i_glide_einternal>
12.9476947784424

> <r_i_glide_emodel>
-50.3098136503612

> <r_glide_XP_HBond>
-0.712420434109669

> <i_i_glide_confnum>
1

> <i_i_glide_posenum>
54

> <r_i_glide_eff_state_penalty>
0.0

> <i_glide_XP_PoseRank>
1

> <MW>
543.25

> <cLogP>
6.18

> <TPSA>
84.67

> <Rotatable Bonds>
9

> <Fraction sp3>
0.28

> <HBA>
5

> <HBD>
1

> <s_epik_Chemistry_Notes>


> <Structure ID>


> <Submission Fragments>


$$$$
ligprep_COVID_compounds-withfrags-smallmolecules-forvalidation.maegz:6
                    3D
 Structure written by MMmdl.
 56 59  0  0  1  0            999 V2000
    1.9867    3.6329   20.0923 C   0  0  0  0  0  0
    2.1856    2.3445   20.9209 C   0  0  1  0  0  0
    3.5765    1.7394   20.6095 C   0  0  0  0  0  0
    3.9201    1.4364   19.2738 C   0  0  0  0  0  0
    5.1645    0.8878   18.9238 C   0  0  0  0  0  0
    6.1119    0.6355   19.9246 C   0  0  0  0  0  0
    5.8161    0.9534   21.2621 C   0  0  0  0  0  0
    6.7751    0.6952   22.1973 O   0  0  0  0  0  0
    4.5569    1.5158   21.6078 C   0  0  0  0  0  0
    4.2436    1.8976   22.9972 C   0  0  0  0  0  0
    5.0907    2.2802   23.7966 O   0  0  0  0  0  0
    2.8226    1.8377   23.3508 C   0  0  0  0  0  0
    1.9130    2.6492   22.4421 C   0  0  2  0  0  0
    0.4320    2.5962   22.9531 C   0  0  2  0  0  0
    0.0115    1.1910   23.4954 C   0  0  2  0  0  0
   -1.4754    1.1090   23.9519 C   0  0  2  0  0  0
   -2.4754    0.9575   22.8545 N   0  0  0  0  0  0
   -2.0626    0.0694   21.7689 C   0  0  0  0  0  0
   -3.7359    0.3953   23.3500 C   0  0  0  0  0  0
   -1.7186    2.2042   25.0401 C   0  0  0  0  0  0
   -2.7828    2.8249   24.8054 O   0  5  0  0  0  0
   -0.7351    2.3736   26.0339 C   0  0  0  0  0  0
   -1.0184    3.3709   27.0955 C   0  0  0  0  0  0
    0.0121    3.6743   27.8871 N   0  0  0  0  0  0
   -2.0893    3.9353   27.3084 O   0  0  0  0  0  0
    0.5617    1.6053   25.9687 C   0  0  0  0  0  0
    1.3760    1.5729   26.8958 O   0  0  0  0  0  0
    0.9093    0.7899   24.6953 C   0  0  2  0  0  0
    2.3812    1.0142   24.3276 C   0  0  0  0  0  0
    3.1696    0.1360   24.9704 O   0  0  0  0  0  0
    0.7098   -0.5871   24.9992 O   0  0  0  0  0  0
   -0.5045    3.0638   21.9985 O   0  0  0  0  0  0
    1.1743    1.4410   20.5249 O   0  0  0  0  0  0
    2.7606    4.3611   20.3416 H   0  0  0  0  0  0
    1.0274    4.1120   20.2770 H   0  0  0  0  0  0
    2.0477    3.4542   19.0193 H   0  0  0  0  0  0
    3.2055    1.6317   18.4949 H   0  0  0  0  0  0
    5.3812    0.6592   17.8912 H   0  0  0  0  0  0
    7.0674    0.2049   19.6631 H   0  0  0  0  0  0
    7.6496    0.7533   21.8387 H   0  0  0  0  0  0
    2.2497    3.6757   22.6026 H   0  0  0  0  0  0
    0.3710    3.3223   23.7631 H   0  0  0  0  0  0
    0.2200    0.4468   22.7304 H   0  0  0  0  0  0
   -1.5721    0.1568   24.4715 H   0  0  0  0  0  0
   -2.8781   -0.0928   21.0635 H   0  0  0  0  0  0
   -1.7421   -0.9019   22.1469 H   0  0  0  0  0  0
   -1.2514    0.5030   21.1885 H   0  0  0  0  0  0
   -4.4755    0.3521   22.5502 H   0  0  0  0  0  0
   -4.1861    0.9779   24.1502 H   0  0  0  0  0  0
   -3.5928   -0.6178   23.7266 H   0  0  0  0  0  0
    0.8855    3.1817   27.7461 H   0  0  0  0  0  0
   -0.1044    4.3521   28.6230 H   0  0  0  0  0  0
    2.5767   -0.4632   25.4081 H   0  0  0  0  0  0
   -0.1502   -0.6789   25.3846 H   0  0  0  0  0  0
   -1.3712    2.9810   22.3839 H   0  0  0  0  0  0
    0.3540    1.8540   20.7780 H   0  0  0  0  0  0
  1  2  1  0  0  0
  1 34  1  0  0  0
  1 35  1  0  0  0
  1 36  1  0  0  0
  2  3  1  0  0  0
  2 33  1  0  0  0
  2 13  1  0  0  0
  3  4  2  0  0  0
  3  9  1  0  0  0
  4  5  1  0  0  0
  4 37  1  0  0  0
  5  6  2  0  0  0
  5 38  1  0  0  0
  6  7  1  0  0  0
  6 39  1  0  0  0
  7  8  1  0  0  0
  7  9  2  0  0  0
  8 40  1  0  0  0
  9 10  1  0  0  0
 10 11  2  0  0  0
 10 12  1  0  0  0
 12 13  1  0  0  0
 12 29  2  0  0  0
 13 14  1  0  0  0
 13 41  1  0  0  0
 14 15  1  0  0  0
 14 32  1  0  0  0
 14 42  1  0  0  0
 15 16  1  0  0  0
 15 28  1  0  0  0
 15 43  1  0  0  0
 16 17  1  0  0  0
 16 20  1  0  0  0
 16 44  1  0  0  0
 17 18  1  0  0  0
 17 19  1  0  0  0
 18 45  1  0  0  0
 18 46  1  0  0  0
 18 47  1  0  0  0
 19 48  1  0  0  0
 19 49  1  0  0  0
 19 50  1  0  0  0
 20 21  1  0  0  0
 20 22  2  0  0  0
 22 23  1  0  0  0
 22 26  1  0  0  0
 23 24  1  0  0  0
 23 25  2  0  0  0
 24 51  1  0  0  0
 24 52  1  0  0  0
 26 27  2  0  0  0
 26 28  1  0  0  0
 28 29  1  0  0  0
 28 31  1  0  0  0
 29 30  1  0  0  0
 30 53  1  0  0  0
 31 54  1  0  0  0
 32 55  1  0  0  0
 33 56  1  0  0  0
M  CHG  1  21  -1
M  END
> <s_m_entry_id>
2905

> <s_m_entry_name>
Compounds-withfrags-for-validation-docking.1911

> <s_m_Source_Path>
/home/rodolpho/data/melina/maestro/glide-dock_XP_5RGK_M-PRO_VALIDATION

> <s_m_Source_File>
glide-dock_XP_5RGK_M-PRO_VALIDATION_pv.maegz

> <i_m_Source_File_Index>
2905

> <CID>
Oxitetracyclin

> <Potency>
15.15

> <pIC50>
4.81959

> <Source>
https://doi.org/10.1101/2020.03.23.004580

> <smiles>
C(C1(C2=C(C(=C(C(O[H])=C2C(O[H])=C2C1(C(C1(C(N(C([H])([H])[H])C([H])([H])[H])([H])C(=O)C(=C(N([H])[H])O[H])C(=O)C1(C2=O)O[H])[H])(O[H])[H])[H])[H])[H])[H])O[H])([H])([H])[H]

> <Outcome>
Inactive

> <StandardizerResult>
Clear Stereo (ID: ClearStereo)
Wedge Clean (ID: WedgeClean)
Mesomerize (ID: Mesomerize)
Tautomerize (ID: Tautomerize)
Aromatize (ID: Aromatize)
Add Explicit Hydrogens (ID: AddExplicitH)
Neutralize (ID: Neutralize)
Clean 2D (ID: Clean2D)

> <chiral flag>
0

> <version>
0

> <i_lp_mmshare_version>
41011

> <i_f3d_flags>
0

> <s_epik_input>
W09IXWMxW2NIXVtjSF1bY0hdYyhbQ0BAXTIoW0NIM10pW09IXSljMUMoPU8pQyg9QzNbT0hdKVtDQEBIXTJbQ0BASF0oW09IXSlbQ0BASF0oW0NAQF0zNFtPSF0pW0NASF0oTihbQ0gzXSlbQ0gzXSlDKD1PKVtDQEhdKEM0PU8pQyg9TylbTkgyXQ==

> <s_epik_cmdline>
J2VwaWtfcHl0aG9uJywgJy1waHQnLCAnMC41JywgJy1waCcsICc3LjQnLCAnLXRuJywgJzgnLCAnLW1hJywgJzIwMCcsICctaW1hZScsICc8aW5maWxlLm1hZT4nLCAnLW9tYWUnLCAnPG91dGZpbGUubWFlPic=

> <r_epik_Ionization_Penalty>
0.3646

> <r_epik_Ionization_Penalty_Charging>
0.0013

> <r_epik_Ionization_Penalty_Neutral>
0.3633

> <r_epik_State_Penalty>
0.3215

> <r_epik_Charging_Adjusted_Penalty>
0.322822

> <i_epik_Tot_Q>
-1

> <i_epik_Tot_abs_Q>
1

> <s_lp_Force_Field>
OPLS3

> <r_lp_Energy>
68.285

> <b_lp_Chiralities_Consistent>
1

> <s_lp_Variant>
ligprep_COVID_compounds-withfrags-smallmolecules-forvalidation.maegz:6-22

> <i_glide_original_lignum>
74

> <s_i_glide_gridfile>
glide-grid_5RGK_M-PRO_COVID

> <i_i_glide_lignum>
74

> <r_i_docking_score>
-3.28810081859461

> <r_i_glide_ligand_efficiency>
-0.0996394187452913

> <r_i_glide_ligand_efficiency_sa>
-0.319596855873861

> <r_i_glide_ligand_efficiency_ln>
-0.731256597180555

> <r_glide_XP_GScore>
-3.60959781859461

> <r_i_glide_gscore>
-3.60959781859461

> <r_i_glide_evdw>
-17.7677841186523

> <r_i_glide_ecoul>
-6.85874938964844

> <r_i_glide_energy>
-24.6265335083008

> <r_i_glide_einternal>
2.81149005889893

> <r_i_glide_emodel>
-27.3084451215229

> <r_glide_XP_HBond>
-1.74371647307301

> <i_i_glide_confnum>
1

> <i_i_glide_posenum>
13

> <r_i_glide_eff_state_penalty>
0.321497

> <i_glide_XP_PoseRank>
1

> <r_lp_tautomer_probability>


> <s_epik_Chemistry_Notes>


> <MW>


> <cLogP>


> <TPSA>


> <Rotatable Bonds>


> <Fraction sp3>


> <HBA>


> <HBD>


> <Structure ID>


> <Submission Fragments>


$$$$
ligprep_COVID_compounds-withfrags-smallmolecules-forvalidation.maegz:6
                    3D
 Structure written by MMmdl.
 56 59  0  0  1  0            999 V2000
    5.2216    3.0735   24.0987 C   0  0  0  0  0  0
    4.1206    2.2765   23.3606 C   0  0  2  0  0  0
    4.7373    1.4144   22.2425 C   0  0  0  0  0  0
    5.7656    0.5063   22.5804 C   0  0  0  0  0  0
    6.4110   -0.2495   21.5906 C   0  0  0  0  0  0
    6.0869   -0.0659   20.2386 C   0  0  0  0  0  0
    5.0517    0.8141   19.8782 C   0  0  0  0  0  0
    4.7939    0.9763   18.5452 O   0  0  0  0  0  0
    4.3134    1.4971   20.8848 C   0  0  0  0  0  0
    3.0636    2.2384   20.5434 C   0  0  0  0  0  0
    2.6782    2.4125   19.3872 O   0  0  0  0  0  0
    2.2486    2.6730   21.6866 C   0  0  0  0  0  0
    3.0326    3.2682   22.8381 C   0  0  1  0  0  0
    2.1486    3.9720   23.9327 C   0  0  2  0  0  0
    0.6299    4.1802   23.5799 C   0  0  2  0  0  0
   -0.3062    4.5696   24.7785 C   0  0  2  0  0  0
    0.0915    5.8802   25.3554 N   0  0  0  0  0  0
    0.9514    5.8345   26.5397 C   0  0  0  0  0  0
   -1.0445    6.7563   25.6292 C   0  0  0  0  0  0
   -0.6874    3.3761   25.7286 C   0  0  0  0  0  0
   -1.1995    3.8319   26.7824 O   0  5  0  0  0  0
   -0.4722    2.0447   25.3057 C   0  0  0  0  0  0
   -0.7844    0.8858   26.1772 C   0  0  0  0  0  0
   -1.1996    1.1957   27.4031 N   0  0  0  0  0  0
   -0.6971   -0.3027   25.8732 O   0  0  0  0  0  0
    0.0644    1.7622   23.9413 C   0  0  0  0  0  0
    0.5295    0.6687   23.6034 O   0  0  0  0  0  0
    0.0479    2.9106   22.9055 C   0  0  2  0  0  0
    0.9091    2.5350   21.6982 C   0  0  0  0  0  0
    0.1831    2.1051   20.6469 O   0  0  0  0  0  0
   -1.2945    3.1460   22.4951 O   0  0  0  0  0  0
    2.7758    5.2208   24.1764 O   0  0  0  0  0  0
    3.5271    1.4240   24.3213 O   0  0  0  0  0  0
    5.7002    3.7826   23.4242 H   0  0  0  0  0  0
    6.0188    2.4501   24.4980 H   0  0  0  0  0  0
    4.8172    3.6451   24.9340 H   0  0  0  0  0  0
    6.0619    0.3771   23.6110 H   0  0  0  0  0  0
    7.1730   -0.9574   21.8709 H   0  0  0  0  0  0
    6.6214   -0.6161   19.4779 H   0  0  0  0  0  0
    4.1382    1.6496   18.3888 H   0  0  0  0  0  0
    3.5746    4.0609   22.3177 H   0  0  0  0  0  0
    2.1964    3.4182   24.8690 H   0  0  0  0  0  0
    0.5769    4.9870   22.8468 H   0  0  0  0  0  0
   -1.2466    4.8084   24.2818 H   0  0  0  0  0  0
    1.4492    6.7955   26.6722 H   0  0  0  0  0  0
    1.7229    5.0708   26.4568 H   0  0  0  0  0  0
    0.3892    5.6337   27.4518 H   0  0  0  0  0  0
   -0.6977    7.7351   25.9633 H   0  0  0  0  0  0
   -1.6945    6.3463   26.4029 H   0  0  0  0  0  0
   -1.6413    6.9115   24.7294 H   0  0  0  0  0  0
   -1.2933    2.1944   27.5937 H   0  0  0  0  0  0
   -1.4407    0.4838   28.0725 H   0  0  0  0  0  0
    0.7740    2.0330   19.9098 H   0  0  0  0  0  0
   -1.2712    3.6876   21.7221 H   0  0  0  0  0  0
    2.7428    5.7403   23.3880 H   0  0  0  0  0  0
    2.7853    0.9826   23.9285 H   0  0  0  0  0  0
  1  2  1  0  0  0
  1 34  1  0  0  0
  1 35  1  0  0  0
  1 36  1  0  0  0
  2  3  1  0  0  0
  2 33  1  0  0  0
  2 13  1  0  0  0
  3  4  2  0  0  0
  3  9  1  0  0  0
  4  5  1  0  0  0
  4 37  1  0  0  0
  5  6  2  0  0  0
  5 38  1  0  0  0
  6  7  1  0  0  0
  6 39  1  0  0  0
  7  8  1  0  0  0
  7  9  2  0  0  0
  8 40  1  0  0  0
  9 10  1  0  0  0
 10 11  2  0  0  0
 10 12  1  0  0  0
 12 13  1  0  0  0
 12 29  2  0  0  0
 13 14  1  0  0  0
 13 41  1  0  0  0
 14 15  1  0  0  0
 14 32  1  0  0  0
 14 42  1  0  0  0
 15 16  1  0  0  0
 15 28  1  0  0  0
 15 43  1  0  0  0
 16 17  1  0  0  0
 16 20  1  0  0  0
 16 44  1  0  0  0
 17 18  1  0  0  0
 17 19  1  0  0  0
 18 45  1  0  0  0
 18 46  1  0  0  0
 18 47  1  0  0  0
 19 48  1  0  0  0
 19 49  1  0  0  0
 19 50  1  0  0  0
 20 21  1  0  0  0
 20 22  2  0  0  0
 22 23  1  0  0  0
 22 26  1  0  0  0
 23 24  1  0  0  0
 23 25  2  0  0  0
 24 51  1  0  0  0
 24 52  1  0  0  0
 26 27  2  0  0  0
 26 28  1  0  0  0
 28 29  1  0  0  0
 28 31  1  0  0  0
 29 30  1  0  0  0
 30 53  1  0  0  0
 31 54  1  0  0  0
 32 55  1  0  0  0
 33 56  1  0  0  0
M  CHG  1  21  -1
M  END
> <s_m_entry_id>
2949

> <s_m_entry_name>
Compounds-withfrags-for-validation-docking.1911

> <s_m_Source_Path>
/home/rodolpho/data/melina/maestro/glide-dock_XP_5RGK_M-PRO_VALIDATION

> <s_m_Source_File>
glide-dock_XP_5RGK_M-PRO_VALIDATION_pv.maegz

> <i_m_Source_File_Index>
2949

> <CID>
Oxitetracyclin

> <Potency>
15.15

> <pIC50>
4.81959

> <Source>
https://doi.org/10.1101/2020.03.23.004580

> <smiles>
C(C1(C2=C(C(=C(C(O[H])=C2C(O[H])=C2C1(C(C1(C(N(C([H])([H])[H])C([H])([H])[H])([H])C(=O)C(=C(N([H])[H])O[H])C(=O)C1(C2=O)O[H])[H])(O[H])[H])[H])[H])[H])[H])O[H])([H])([H])[H]

> <Outcome>
Inactive

> <StandardizerResult>
Clear Stereo (ID: ClearStereo)
Wedge Clean (ID: WedgeClean)
Mesomerize (ID: Mesomerize)
Tautomerize (ID: Tautomerize)
Aromatize (ID: Aromatize)
Add Explicit Hydrogens (ID: AddExplicitH)
Neutralize (ID: Neutralize)
Clean 2D (ID: Clean2D)

> <chiral flag>
0

> <version>
0

> <i_lp_mmshare_version>
41011

> <i_f3d_flags>
0

> <s_epik_input>
W09IXWMxW2NIXVtjSF1bY0hdYyhbQ0BdMihbQ0gzXSlbT0hdKWMxQyg9TylDKD1DM1tPSF0pW0NASF0yW0NAQEhdKFtPSF0pW0NAQEhdKFtDQEBdMzRbT0hdKVtDQEhdKE4oW0NIM10pW0NIM10pQyg9TylbQ0BIXShDND1PKUMoPU8pW05IMl0=

> <s_epik_cmdline>
J2VwaWtfcHl0aG9uJywgJy1waHQnLCAnMC41JywgJy1waCcsICc3LjQnLCAnLXRuJywgJzgnLCAnLW1hJywgJzIwMCcsICctaW1hZScsICc8aW5maWxlLm1hZT4nLCAnLW9tYWUnLCAnPG91dGZpbGUubWFlPic=

> <r_epik_Ionization_Penalty>
0.3646

> <r_epik_Ionization_Penalty_Charging>
0.0013

> <r_epik_Ionization_Penalty_Neutral>
0.3633

> <r_epik_State_Penalty>
0.3215

> <r_epik_Charging_Adjusted_Penalty>
0.322822

> <i_epik_Tot_Q>
-1

> <i_epik_Tot_abs_Q>
1

> <s_lp_Force_Field>
OPLS3

> <r_lp_Energy>
61.9138

> <b_lp_Chiralities_Consistent>
1

> <s_lp_Variant>
ligprep_COVID_compounds-withfrags-smallmolecules-forvalidation.maegz:6-17

> <i_glide_original_lignum>
69

> <s_i_glide_gridfile>
glide-grid_5RGK_M-PRO_COVID

> <i_i_glide_lignum>
69

> <r_i_docking_score>
-3.24987880508192

> <r_i_glide_ligand_efficiency>
-0.0984811759115733

> <r_i_glide_ligand_efficiency_sa>
-0.315881752226569

> <r_i_glide_ligand_efficiency_ln>
-0.722756219278326

> <r_glide_XP_GScore>
-3.57137580508192

> <r_i_glide_gscore>
-3.57137580508192

> <r_i_glide_evdw>
-19.117115020752

> <r_i_glide_ecoul>
-6.75765228271484

> <r_i_glide_energy>
-25.8747673034668

> <r_i_glide_einternal>
4.15594005584717

> <r_i_glide_emodel>
-20.7881763057538

> <r_glide_XP_HBond>
-0.96

> <i_i_glide_confnum>
1

> <i_i_glide_posenum>
27

> <r_i_glide_eff_state_penalty>
0.321497

> <i_glide_XP_PoseRank>
1

> <r_lp_tautomer_probability>


> <s_epik_Chemistry_Notes>


> <MW>


> <cLogP>


> <TPSA>


> <Rotatable Bonds>


> <Fraction sp3>


> <HBA>


> <HBD>


> <Structure ID>


> <Submission Fragments>


$$$$
ligprep_COVID_compounds-withfrags-smallmolecules-forvalidation.maegz:35
                    3D
 Structure written by MMmdl.
 63 66  0  0  1  0            999 V2000
    1.1401    3.8385   19.3349 C   0  0  0  0  0  0
    0.8354    2.4511   20.4621 S   0  0  0  0  0  0
    2.4257    1.9511   21.0859 C   0  0  0  0  0  0
    3.4821    1.8163   20.1806 C   0  0  0  0  0  0
    4.7502    1.4460   20.6211 C   0  0  0  0  0  0
    4.9844    1.2070   21.9759 C   0  0  0  0  0  0
    6.3961    0.8641   22.4458 C   0  0  0  0  0  0
    6.6528   -0.5851   22.6453 N   0  0  0  0  0  0
    6.5106   -1.4177   21.5669 C   0  0  0  0  0  0
    6.5404   -2.6485   21.6413 O   0  0  0  0  0  0
    6.3806   -0.8189   20.2606 C   0  0  0  0  0  0
    6.7282    0.4498   19.8092 C   0  0  0  0  0  0
    6.2586    0.5608   18.4996 C   0  0  0  0  0  0
    5.5891   -0.6193   18.2267 C   0  0  0  0  0  0
    5.6332   -1.4413   19.3062 O   0  0  0  0  0  0
    7.4002   -0.9759   23.8872 C   0  0  1  0  0  0
    7.7878   -2.4794   23.9344 C   0  0  0  0  0  0
    8.9695   -2.8261   23.8885 O   0  0  0  0  0  0
    6.7619   -3.3404   24.0495 N   0  0  0  0  0  0
    6.9053   -4.7903   24.1452 C   0  0  0  0  0  0
    7.6072   -5.2491   25.4390 C   0  0  0  0  0  0
    6.7131   -5.1248   26.6630 C   0  0  0  0  0  0
    7.0609   -5.7656   27.8568 C   0  0  0  0  0  0
    6.2383   -5.6558   28.9787 C   0  0  0  0  0  0
    5.0640   -4.9053   28.9125 C   0  0  0  0  0  0
    4.7118   -4.2647   27.7242 C   0  0  0  0  0  0
    3.5736   -3.5376   27.6600 F   0  0  0  0  0  0
    5.5336   -4.3747   26.6016 C   0  0  0  0  0  0
    8.5381   -0.0141   24.1951 C   0  0  0  0  0  0
    9.8450   -0.4295   24.5054 C   0  0  0  0  0  0
   10.8378    0.5194   24.7550 C   0  0  0  0  0  0
   10.4982    1.8706   24.6893 C   0  0  0  0  0  0
    9.2458    2.3022   24.3981 N   0  0  0  0  0  0
    8.2930    1.3652   24.1621 C   0  0  0  0  0  0
    3.9283    1.3301   22.8853 C   0  0  0  0  0  0
    2.6513    1.7072   22.4558 C   0  0  0  0  0  0
    1.6034    1.8371   23.4646 C   0  0  0  0  0  0
    0.7719    1.9391   24.2629 N   0  0  0  0  0  0
    0.2107    4.1370   18.8503 H   0  0  0  0  0  0
    1.8546    3.5496   18.5638 H   0  0  0  0  0  0
    1.5367    4.6985   19.8742 H   0  0  0  0  0  0
    3.3309    2.0121   19.1294 H   0  0  0  0  0  0
    5.5560    1.3636   19.9059 H   0  0  0  0  0  0
    7.0822    1.3147   21.7275 H   0  0  0  0  0  0
    6.5825    1.3771   23.3902 H   0  0  0  0  0  0
    7.2675    1.2040   20.3638 H   0  0  0  0  0  0
    6.3725    1.4082   17.8400 H   0  0  0  0  0  0
    5.0489   -0.9870   17.3666 H   0  0  0  0  0  0
    6.7298   -0.8779   24.7368 H   0  0  0  0  0  0
    5.8221   -2.9749   24.1036 H   0  0  0  0  0  0
    5.9033   -5.2195   24.1060 H   0  0  0  0  0  0
    7.4301   -5.1762   23.2684 H   0  0  0  0  0  0
    7.9356   -6.2857   25.3463 H   0  0  0  0  0  0
    8.5168   -4.6676   25.5994 H   0  0  0  0  0  0
    7.9674   -6.3506   27.9164 H   0  0  0  0  0  0
    6.5105   -6.1523   29.8983 H   0  0  0  0  0  0
    4.4279   -4.8207   29.7812 H   0  0  0  0  0  0
    5.2515   -3.8767   25.6853 H   0  0  0  0  0  0
   10.1007   -1.4783   24.5396 H   0  0  0  0  0  0
   11.8470    0.2140   24.9880 H   0  0  0  0  0  0
   11.2404    2.6339   24.8715 H   0  0  0  0  0  0
    7.3094    1.7435   23.9228 H   0  0  0  0  0  0
    4.1125    1.1465   23.9352 H   0  0  0  0  0  0
  1  2  1  0  0  0
  1 39  1  0  0  0
  1 40  1  0  0  0
  1 41  1  0  0  0
  2  3  1  0  0  0
  3  4  2  0  0  0
  3 36  1  0  0  0
  4  5  1  0  0  0
  4 42  1  0  0  0
  5  6  2  0  0  0
  5 43  1  0  0  0
  6  7  1  0  0  0
  6 35  1  0  0  0
  7  8  1  0  0  0
  7 44  1  0  0  0
  7 45  1  0  0  0
  8  9  1  0  0  0
  8 16  1  0  0  0
  9 10  2  0  0  0
  9 11  1  0  0  0
 11 12  2  0  0  0
 11 15  1  0  0  0
 12 13  1  0  0  0
 12 46  1  0  0  0
 13 14  2  0  0  0
 13 47  1  0  0  0
 14 15  1  0  0  0
 14 48  1  0  0  0
 16 17  1  0  0  0
 16 29  1  0  0  0
 16 49  1  0  0  0
 17 18  2  0  0  0
 17 19  1  0  0  0
 19 20  1  0  0  0
 19 50  1  0  0  0
 20 21  1  0  0  0
 20 51  1  0  0  0
 20 52  1  0  0  0
 21 22  1  0  0  0
 21 53  1  0  0  0
 21 54  1  0  0  0
 22 23  2  0  0  0
 22 28  1  0  0  0
 23 24  1  0  0  0
 23 55  1  0  0  0
 24 25  2  0  0  0
 24 56  1  0  0  0
 25 26  1  0  0  0
 25 57  1  0  0  0
 26 27  1  0  0  0
 26 28  2  0  0  0
 28 58  1  0  0  0
 29 30  2  0  0  0
 29 34  1  0  0  0
 30 31  1  0  0  0
 30 59  1  0  0  0
 31 32  2  0  0  0
 31 60  1  0  0  0
 32 33  1  0  0  0
 32 61  1  0  0  0
 33 34  2  0  0  0
 34 62  1  0  0  0
 35 36  2  0  0  0
 35 63  1  0  0  0
 36 37  1  0  0  0
 37 38  3  0  0  0
M  END
> <s_m_entry_id>
2952

> <s_m_entry_name>
Compounds-withfrags-for-validation-docking.1882

> <s_m_Source_Path>
/home/rodolpho/data/melina/maestro/glide-dock_XP_5RGK_M-PRO_VALIDATION

> <s_m_Source_File>
glide-dock_XP_5RGK_M-PRO_VALIDATION_pv.maegz

> <i_m_Source_File_Index>
2952

> <CID>
ALP-POS-b0bc6a46-20

> <Potency>
54.8907

> <pIC50>
4.2605

> <Source>
Postera

> <smiles>
CSc1ccc(CN(C(=O)c2ccco2)C(C(=O)NCCc2cccc(F)c2)c2cccnc2)cc1C#N

> <Outcome>
Inactive

> <StandardizerResult>
Clear Stereo (ID: ClearStereo)
Wedge Clean (ID: WedgeClean)
Mesomerize (ID: Mesomerize)
Tautomerize (ID: Tautomerize)
Aromatize (ID: Aromatize)
Add Explicit Hydrogens (ID: AddExplicitH)
Neutralize (ID: Neutralize)
Clean 2D (ID: Clean2D)

> <chiral flag>
0

> <version>
0

> <i_lp_mmshare_version>
41011

> <i_f3d_flags>
0

> <s_epik_input>
W0NIM11TYzFbY0hdW2NIXWMoW2NIXWMxQyNOKVtDSDJdTihDKD1PKWMyW2NIXVtjSF1bY0hdbzIpW0NASF0oYzNbY0hdW2NIXVtjSF1uW2NIXTMpQyg9TylbTkhdW0NIMl1bQ0gyXWM0W2NIXVtjSF1bY0hdYyhGKVtjSF00

> <s_epik_cmdline>
J2VwaWtfcHl0aG9uJywgJy1waHQnLCAnMC41JywgJy1waCcsICc3LjQnLCAnLXRuJywgJzgnLCAnLW1hJywgJzIwMCcsICctaW1hZScsICc8aW5maWxlLm1hZT4nLCAnLW9tYWUnLCAnPG91dGZpbGUubWFlPic=

> <r_lp_tautomer_probability>
1.0

> <r_epik_Ionization_Penalty>
7.0E-4

> <r_epik_Ionization_Penalty_Charging>
0.0

> <r_epik_Ionization_Penalty_Neutral>
7.0E-4

> <r_epik_State_Penalty>
0.0

> <r_epik_Charging_Adjusted_Penalty>
0.0

> <i_epik_Tot_Q>
0

> <i_epik_Tot_abs_Q>
0

> <s_lp_Force_Field>
OPLS3

> <r_lp_Energy>
63.1756

> <b_lp_Chiralities_Consistent>
1

> <s_lp_Variant>
ligprep_COVID_compounds-withfrags-smallmolecules-forvalidation.maegz:35-1

> <i_glide_original_lignum>
173

> <s_i_glide_gridfile>
glide-grid_5RGK_M-PRO_COVID

> <i_i_glide_lignum>
173

> <r_i_docking_score>
-3.24578044957416

> <r_i_glide_ligand_efficiency>
-0.0854152749887937

> <r_i_glide_ligand_efficiency_sa>
-0.2871640535291

> <r_i_glide_ligand_efficiency_ln>
-0.699885746115315

> <r_glide_XP_GScore>
-3.24578044957416

> <r_i_glide_gscore>
-3.24578044957416

> <r_i_glide_evdw>
-40.9066200256348

> <r_i_glide_ecoul>
-6.49098682403564

> <r_i_glide_energy>
-47.3976068496704

> <r_i_glide_einternal>
11.4080677032471

> <r_i_glide_emodel>
-61.3124468502239

> <r_glide_XP_HBond>
-0.0184575503108739

> <i_i_glide_confnum>
2

> <i_i_glide_posenum>
1

> <r_i_glide_eff_state_penalty>
0.0

> <i_glide_XP_PoseRank>
1

> <MW>
528.16

> <cLogP>
5.15

> <TPSA>
99.23

> <Rotatable Bonds>
10

> <Fraction sp3>
0.17

> <HBA>
6

> <HBD>
1

> <s_epik_Chemistry_Notes>


> <Structure ID>


> <Submission Fragments>


$$$$
ligprep_COVID_compounds-withfrags-smallmolecules-forvalidation.maegz:4
                    3D
 Structure written by MMmdl.
 93 97  0  0  1  0            999 V2000
    3.8664    6.3329   17.0472 C   0  0  0  0  0  0
    2.4404    6.4486   17.6170 C   0  0  0  0  0  0
    2.1900    7.9125   18.0294 C   0  0  0  0  0  0
    1.4343    5.9986   16.5354 C   0  0  0  0  0  0
    2.3726    5.5527   18.7782 N   0  0  0  0  0  0
    1.3133    5.2819   19.5680 C   0  0  0  0  0  0
    0.2294    5.8514   19.4677 O   0  0  0  0  0  0
    1.4572    4.1480   20.6005 C   0  0  1  0  0  0
    1.1670    2.8527   19.7938 C   0  0  0  0  0  0
    1.3261    1.6336   20.5773 N   0  0  0  0  0  0
    0.3724    1.4708   21.6777 C   0  0  0  0  0  0
   -1.0500    1.2298   21.2125 C   0  0  0  0  0  0
   -1.9497    2.2987   21.0177 C   0  0  0  0  0  0
   -3.2531    2.0137   20.5707 C   0  0  0  0  0  0
   -3.6082    0.6690   20.3494 C   0  0  0  0  0  0
   -2.7610   -0.3621   20.5452 N   0  0  0  0  0  0
   -1.5123   -0.0802   20.9710 C   0  0  0  0  0  0
    2.7302    1.5965   20.9803 C   0  0  0  0  0  0
    3.0595    2.7653   21.9204 C   0  0  0  0  0  0
    2.7743    4.1036   21.3264 N   0  3  2  0  0  0
    2.9130    5.1406   22.3949 C   0  0  0  0  0  0
    3.5741    6.4551   21.9334 C   0  0  2  0  0  0
    4.3500    7.1537   23.0776 C   0  0  0  0  0  0
    5.6882    7.8200   22.6526 C   0  0  1  0  0  0
    5.5635    9.3704   22.5664 C   0  0  0  0  0  0
    5.5684   10.2064   23.8514 C   0  0  0  0  0  0
    5.1368    9.7118   25.1074 C   0  0  0  0  0  0
    5.1790   10.5298   26.2534 C   0  0  0  0  0  0
    5.6513   11.8504   26.1595 C   0  0  0  0  0  0
    6.0806   12.3553   24.9166 C   0  0  0  0  0  0
    6.0366   11.5370   23.7724 C   0  0  0  0  0  0
    6.9018    7.2929   23.4612 C   0  0  0  0  0  0
    7.5575    8.0541   24.1715 O   0  0  0  0  0  0
    7.1718    5.9730   23.3709 N   0  0  0  0  0  0
    7.9971    5.1773   24.3013 C   0  0  1  0  0  0
    9.3502    5.7640   24.6445 C   0  0  0  0  0  0
   10.4879    5.8330   23.8203 C   0  0  0  0  0  0
   11.6690    6.3927   24.3633 C   0  0  0  0  0  0
   11.6852    6.9174   25.6772 C   0  0  0  0  0  0
   10.5331    6.8385   26.4917 C   0  0  0  0  0  0
    9.3864    6.2234   25.9597 C   0  0  0  0  0  0
    8.0999    5.9333   26.6847 C   0  0  0  0  0  0
    7.3324    5.0066   25.7080 C   0  0  1  0  0  0
    5.9390    5.2465   25.7529 O   0  0  0  0  0  0
    2.5795    7.3551   21.4979 O   0  0  0  0  0  0
    3.9985    6.9638   16.1653 H   0  0  0  0  0  0
    4.0946    5.3073   16.7546 H   0  0  0  0  0  0
    4.6108    6.6354   17.7839 H   0  0  0  0  0  0
    2.9025    8.2377   18.7890 H   0  0  0  0  0  0
    1.1872    8.0609   18.4315 H   0  0  0  0  0  0
    2.2956    8.5825   17.1748 H   0  0  0  0  0  0
    1.5443    6.5872   15.6238 H   0  0  0  0  0  0
    0.4007    6.1094   16.8646 H   0  0  0  0  0  0
    1.5851    4.9515   16.2671 H   0  0  0  0  0  0
    3.2530    5.0567   18.9614 H   0  0  0  0  0  0
    0.6661    4.2801   21.3394 H   0  0  0  0  0  0
    0.1638    2.8872   19.3725 H   0  0  0  0  0  0
    1.8374    2.7926   18.9331 H   0  0  0  0  0  0
    0.6745    0.6130   22.2787 H   0  0  0  0  0  0
    0.3781    2.3235   22.3570 H   0  0  0  0  0  0
   -1.6466    3.3207   21.1947 H   0  0  0  0  0  0
   -3.9677    2.8073   20.4026 H   0  0  0  0  0  0
   -4.6007    0.4150   20.0040 H   0  0  0  0  0  0
   -0.8545   -0.9259   21.1055 H   0  0  0  0  0  0
    2.9554    0.6427   21.4583 H   0  0  0  0  0  0
    3.3673    1.6384   20.0950 H   0  0  0  0  0  0
    2.5217    2.6467   22.8599 H   0  0  0  0  0  0
    4.1200    2.7161   22.1747 H   0  0  0  0  0  0
    1.9704    5.3206   22.9140 H   0  0  0  0  0  0
    3.5672    4.7178   23.1539 H   0  0  0  0  0  0
    4.2211    6.2399   21.0908 H   0  0  0  0  0  0
    3.6907    7.8770   23.5550 H   0  0  0  0  0  0
    4.5501    6.4444   23.8753 H   0  0  0  0  0  0
    5.9082    7.5002   21.6334 H   0  0  0  0  0  0
    6.3750    9.7314   21.9372 H   0  0  0  0  0  0
    4.6527    9.6239   22.0220 H   0  0  0  0  0  0
    4.7951    8.6984   25.2239 H   0  0  0  0  0  0
    4.8566   10.1365   27.2072 H   0  0  0  0  0  0
    5.6894   12.4754   27.0391 H   0  0  0  0  0  0
    6.4522   13.3686   24.8433 H   0  0  0  0  0  0
    6.3691   11.9357   22.8232 H   0  0  0  0  0  0
    6.6392    5.4376   22.6876 H   0  0  0  0  0  0
    8.1486    4.2009   23.8428 H   0  0  0  0  0  0
   10.4587    5.4615   22.8062 H   0  0  0  0  0  0
   12.5632    6.4494   23.7625 H   0  0  0  0  0  0
   12.5905    7.3605   26.0670 H   0  0  0  0  0  0
   10.5456    7.2019   27.5081 H   0  0  0  0  0  0
    8.2779    5.4624   27.6522 H   0  0  0  0  0  0
    7.5757    6.8760   26.8433 H   0  0  0  0  0  0
    7.5085    3.9774   26.0270 H   0  0  0  0  0  0
    5.5271    4.6700   25.1278 H   0  0  0  0  0  0
    2.9981    8.1354   21.1626 H   0  0  0  0  0  0
    3.5236    4.2426   20.6484 H   0  0  0  0  0  0
  1  2  1  0  0  0
  1 46  1  0  0  0
  1 47  1  0  0  0
  1 48  1  0  0  0
  2  3  1  0  0  0
  2  4  1  0  0  0
  2  5  1  0  0  0
  3 49  1  0  0  0
  3 50  1  0  0  0
  3 51  1  0  0  0
  4 52  1  0  0  0
  4 53  1  0  0  0
  4 54  1  0  0  0
  5  6  1  0  0  0
  5 55  1  0  0  0
  6  7  2  0  0  0
  6  8  1  0  0  0
  8  9  1  0  0  0
  8 20  1  0  0  0
  8 56  1  0  0  0
  9 10  1  0  0  0
  9 57  1  0  0  0
  9 58  1  0  0  0
 10 11  1  0  0  0
 10 18  1  0  0  0
 11 12  1  0  0  0
 11 59  1  0  0  0
 11 60  1  0  0  0
 12 13  2  0  0  0
 12 17  1  0  0  0
 13 14  1  0  0  0
 13 61  1  0  0  0
 14 15  2  0  0  0
 14 62  1  0  0  0
 15 16  1  0  0  0
 15 63  1  0  0  0
 16 17  2  0  0  0
 17 64  1  0  0  0
 18 19  1  0  0  0
 18 65  1  0  0  0
 18 66  1  0  0  0
 19 20  1  0  0  0
 19 67  1  0  0  0
 19 68  1  0  0  0
 20 21  1  0  0  0
 20 93  1  0  0  0
 21 22  1  0  0  0
 21 69  1  0  0  0
 21 70  1  0  0  0
 22 23  1  0  0  0
 22 45  1  0  0  0
 22 71  1  0  0  0
 23 24  1  0  0  0
 23 72  1  0  0  0
 23 73  1  0  0  0
 24 25  1  0  0  0
 24 32  1  0  0  0
 24 74  1  0  0  0
 25 26  1  0  0  0
 25 75  1  0  0  0
 25 76  1  0  0  0
 26 27  2  0  0  0
 26 31  1  0  0  0
 27 28  1  0  0  0
 27 77  1  0  0  0
 28 29  2  0  0  0
 28 78  1  0  0  0
 29 30  1  0  0  0
 29 79  1  0  0  0
 30 31  2  0  0  0
 30 80  1  0  0  0
 31 81  1  0  0  0
 32 33  2  0  0  0
 32 34  1  0  0  0
 34 35  1  0  0  0
 34 82  1  0  0  0
 35 36  1  0  0  0
 35 43  1  0  0  0
 35 83  1  0  0  0
 36 37  2  0  0  0
 36 41  1  0  0  0
 37 38  1  0  0  0
 37 84  1  0  0  0
 38 39  2  0  0  0
 38 85  1  0  0  0
 39 40  1  0  0  0
 39 86  1  0  0  0
 40 41  2  0  0  0
 40 87  1  0  0  0
 41 42  1  0  0  0
 42 43  1  0  0  0
 42 88  1  0  0  0
 42 89  1  0  0  0
 43 44  1  0  0  0
 43 90  1  0  0  0
 44 91  1  0  0  0
 45 92  1  0  0  0
M  CHG  1  20   1
M  END
> <s_m_entry_id>
2954

> <s_m_entry_name>
Compounds-withfrags-for-validation-docking.1913

> <s_m_Source_Path>
/home/rodolpho/data/melina/maestro/glide-dock_XP_5RGK_M-PRO_VALIDATION

> <s_m_Source_File>
glide-dock_XP_5RGK_M-PRO_VALIDATION_pv.maegz

> <i_m_Source_File_Index>
2954

> <CID>
Indinavir

> <Potency>
43.13

> <pIC50>
4.36522

> <Source>
https://doi.org/10.1101/2020.03.23.004580

> <smiles>
C(C(C([H])([H])[H])(C([H])([H])[H])N(C(=O)C1(C([H])([H])N(C(C2=C([H])C([H])=C([H])N=C2[H])([H])[H])C([H])([H])C([H])([H])N1C(C(C(C(C(C1=C([H])C([H])=C([H])C([H])=C1[H])([H])[H])(C(=O)N(C1(C2=C(C(=C(C([H])=C2C([H])([H])C1(O[H])[H])[H])[H])[H])[H])[H])[H])([H])[H])(O[H])[H])([H])[H])[H])[H])([H])([H])[H]

> <Outcome>
Inactive

> <StandardizerResult>
Clear Stereo (ID: ClearStereo)
Wedge Clean (ID: WedgeClean)
Mesomerize (ID: Mesomerize)
Tautomerize (ID: Tautomerize)
Aromatize (ID: Aromatize)
Add Explicit Hydrogens (ID: AddExplicitH)
Neutralize (ID: Neutralize)
Clean 2D (ID: Clean2D)

> <chiral flag>
0

> <version>
0

> <i_lp_mmshare_version>
41011

> <i_f3d_flags>
0

> <s_epik_input>
W2NIXTFuW2NIXVtjSF1bY0hdYzFbQ0gyXU4oW0NIMl1bQ0BASF0yQyg9TylbTkhdQyhbQ0gzXSkoW0NIM10pW0NIM10pW0NIMl1bQ0gyXU4yW0NIMl1bQ0BASF0oW09IXSlbQ0gyXVtDQEBIXShbQ0gyXWMzW2NIXVtjSF1bY0hdW2NIXVtjSF0zKUMoPU8pW05IXVtDQEBIXTRbQ0BIXShbT0hdKVtDSDJdYyhjNDUpW2NIXVtjSF1bY0hdW2NIXTU=

> <s_epik_cmdline>
J2VwaWtfcHl0aG9uJywgJy1waHQnLCAnMC41JywgJy1waCcsICc3LjQnLCAnLXRuJywgJzgnLCAnLW1hJywgJzIwMCcsICctaW1hZScsICc8aW5maWxlLm1hZT4nLCAnLW9tYWUnLCAnPG91dGZpbGUubWFlPic=

> <r_epik_Ionization_Penalty>
0.3395

> <r_epik_Ionization_Penalty_Charging>
0.3352

> <r_epik_Ionization_Penalty_Neutral>
0.0044

> <r_epik_State_Penalty>
0.5191

> <r_epik_Charging_Adjusted_Penalty>
0.854238

> <i_epik_Tot_Q>
1

> <i_epik_Tot_abs_Q>
1

> <s_lp_Force_Field>
OPLS3

> <r_lp_Energy>
52.6755

> <b_lp_Chiralities_Consistent>
1

> <s_lp_Variant>
ligprep_COVID_compounds-withfrags-smallmolecules-forvalidation.maegz:4-9

> <i_glide_original_lignum>
28

> <s_i_glide_gridfile>
glide-grid_5RGK_M-PRO_COVID

> <i_i_glide_lignum>
28

> <r_i_docking_score>
-3.24428637893766

> <r_i_glide_ligand_efficiency>
-0.0720952528652813

> <r_i_glide_ligand_efficiency_sa>
-0.25643512187665

> <r_i_glide_ligand_efficiency_ln>
-0.674956143861201

> <r_glide_XP_GScore>
-3.76335837893766

> <r_i_glide_gscore>
-3.76335837893766

> <r_i_glide_evdw>
-26.8605346679688

> <r_i_glide_ecoul>
-20.322437286377

> <r_i_glide_energy>
-47.1829719543457

> <r_i_glide_einternal>
14.3897380828857

> <r_i_glide_emodel>
-59.9612326363574

> <r_glide_XP_HBond>
-2.18637745734385

> <i_i_glide_confnum>
1

> <i_i_glide_posenum>
48

> <r_i_glide_eff_state_penalty>
0.519072

> <i_glide_XP_PoseRank>
1

> <r_lp_tautomer_probability>


> <s_epik_Chemistry_Notes>


> <MW>


> <cLogP>


> <TPSA>


> <Rotatable Bonds>


> <Fraction sp3>


> <HBA>


> <HBD>


> <Structure ID>


> <Submission Fragments>


$$$$
ligprep_COVID_compounds-withfrags-smallmolecules-forvalidation.maegz:45
                    3D
 Structure written by MMmdl.
 66 70  0  0  1  0            999 V2000
    3.7288    1.0339   21.5659 C   0  0  0  0  0  0
    4.3366    0.7748   22.9541 C   0  0  0  0  0  0
    3.9886    1.7751   23.9064 O   0  0  0  0  0  0
    4.4896    3.0607   23.5719 C   0  0  1  0  0  0
    3.4155    4.0182   23.0261 C   0  0  0  0  0  0
    3.7285    4.9664   24.1576 C   0  0  2  0  0  0
    4.6694    3.9694   24.7930 C   0  0  0  0  0  0
    2.6781    5.7670   24.8533 C   0  0  0  0  0  0
    3.8453    6.4819   24.1484 C   0  0  1  0  0  0
    4.8930    7.1389   24.9213 N   0  0  0  0  0  0
    4.6752    7.5529   26.1973 C   0  0  0  0  0  0
    3.5703    7.8808   26.6317 O   0  0  0  0  0  0
    5.8308    7.5484   27.1190 C   0  0  0  0  0  0
    6.1056    8.3330   28.2051 C   0  0  0  0  0  0
    7.3340    7.8606   28.7486 C   0  0  0  0  0  0
    7.7079    6.8058   27.9659 C   0  0  0  0  0  0
    6.8046    6.6022   26.9702 O   0  0  0  0  0  0
    6.0048    7.8354   24.2000 C   0  0  1  0  0  0
    7.2882    7.0322   23.8948 C   0  0  0  0  0  0
    8.3753    7.5499   24.1511 O   0  0  0  0  0  0
    7.2018    5.7967   23.3831 N   0  0  0  0  0  0
    8.3545    4.9929   22.9849 C   0  0  0  0  0  0
    9.1226    4.3998   24.1836 C   0  0  0  0  0  0
   10.3379    3.5806   23.7691 C   0  0  0  0  0  0
   10.4614    2.2314   24.1689 C   0  0  0  0  0  0
   11.5845    1.4763   23.7706 C   0  0  0  0  0  0
   12.5932    2.0647   22.9804 C   0  0  0  0  0  0
   12.4842    3.4161   22.6006 C   0  0  0  0  0  0
   13.4507    3.9912   21.8480 F   0  0  0  0  0  0
   11.3690    4.1724   23.0069 C   0  0  0  0  0  0
    5.5529    8.5312   22.9376 C   0  0  0  0  0  0
    5.6525    8.0086   21.6215 C   0  0  0  0  0  0
    5.2096    8.7584   20.5185 C   0  0  0  0  0  0
    4.6679   10.0309   20.7528 C   0  0  0  0  0  0
    4.5345   10.5509   21.9876 N   0  0  0  0  0  0
    4.9732    9.8177   23.0313 C   0  0  0  0  0  0
    3.9750    0.2235   20.8787 H   0  0  0  0  0  0
    4.1097    1.9543   21.1193 H   0  0  0  0  0  0
    2.6424    1.1126   21.6176 H   0  0  0  0  0  0
    3.9791   -0.1815   23.3341 H   0  0  0  0  0  0
    5.4231    0.6889   22.8854 H   0  0  0  0  0  0
    5.4018    3.0363   22.9723 H   0  0  0  0  0  0
    3.5750    4.4064   22.0208 H   0  0  0  0  0  0
    2.4176    3.5816   23.0877 H   0  0  0  0  0  0
    4.2860    3.5232   25.7107 H   0  0  0  0  0  0
    5.6944    4.3062   24.9326 H   0  0  0  0  0  0
    1.7016    5.8310   24.3787 H   0  0  0  0  0  0
    2.6510    5.6515   25.9345 H   0  0  0  0  0  0
    3.5454    6.9726   23.2252 H   0  0  0  0  0  0
    5.4942    9.1470   28.5648 H   0  0  0  0  0  0
    7.8691    8.2329   29.6113 H   0  0  0  0  0  0
    8.5409    6.1174   27.9790 H   0  0  0  0  0  0
    6.3784    8.6414   24.8364 H   0  0  0  0  0  0
    6.2966    5.4366   23.0992 H   0  0  0  0  0  0
    8.0074    4.1925   22.3312 H   0  0  0  0  0  0
    9.0091    5.6205   22.3808 H   0  0  0  0  0  0
    9.4681    5.1946   24.8440 H   0  0  0  0  0  0
    8.4496    3.7828   24.7787 H   0  0  0  0  0  0
    9.6898    1.7676   24.7662 H   0  0  0  0  0  0
   11.6687    0.4420   24.0692 H   0  0  0  0  0  0
   13.4529    1.4875   22.6701 H   0  0  0  0  0  0
   11.2967    5.2066   22.7041 H   0  0  0  0  0  0
    6.0694    7.0361   21.4281 H   0  0  0  0  0  0
    5.2904    8.3655   19.5157 H   0  0  0  0  0  0
    4.3202   10.6400   19.9320 H   0  0  0  0  0  0
    4.8529   10.2813   23.9988 H   0  0  0  0  0  0
  1  2  1  0  0  0
  1 37  1  0  0  0
  1 38  1  0  0  0
  1 39  1  0  0  0
  2  3  1  0  0  0
  2 40  1  0  0  0
  2 41  1  0  0  0
  3  4  1  0  0  0
  4  5  1  0  0  0
  4  7  1  0  0  0
  4 42  1  0  0  0
  5  6  1  0  0  0
  5 43  1  0  0  0
  5 44  1  0  0  0
  6  7  1  0  0  0
  6  8  1  0  0  0
  6  9  1  0  0  0
  7 45  1  0  0  0
  7 46  1  0  0  0
  8  9  1  0  0  0
  8 47  1  0  0  0
  8 48  1  0  0  0
  9 10  1  0  0  0
  9 49  1  0  0  0
 10 11  1  0  0  0
 10 18  1  0  0  0
 11 12  2  0  0  0
 11 13  1  0  0  0
 13 14  2  0  0  0
 13 17  1  0  0  0
 14 15  1  0  0  0
 14 50  1  0  0  0
 15 16  2  0  0  0
 15 51  1  0  0  0
 16 17  1  0  0  0
 16 52  1  0  0  0
 18 19  1  0  0  0
 18 31  1  0  0  0
 18 53  1  0  0  0
 19 20  2  0  0  0
 19 21  1  0  0  0
 21 22  1  0  0  0
 21 54  1  0  0  0
 22 23  1  0  0  0
 22 55  1  0  0  0
 22 56  1  0  0  0
 23 24  1  0  0  0
 23 57  1  0  0  0
 23 58  1  0  0  0
 24 25  2  0  0  0
 24 30  1  0  0  0
 25 26  1  0  0  0
 25 59  1  0  0  0
 26 27  2  0  0  0
 26 60  1  0  0  0
 27 28  1  0  0  0
 27 61  1  0  0  0
 28 29  1  0  0  0
 28 30  2  0  0  0
 30 62  1  0  0  0
 31 32  2  0  0  0
 31 36  1  0  0  0
 32 33  1  0  0  0
 32 63  1  0  0  0
 33 34  2  0  0  0
 33 64  1  0  0  0
 34 35  1  0  0  0
 34 65  1  0  0  0
 35 36  2  0  0  0
 36 66  1  0  0  0
M  END
> <s_m_entry_id>
2975

> <s_m_entry_name>
Compounds-withfrags-for-validation-docking.1872

> <s_m_Source_Path>
/home/rodolpho/data/melina/maestro/glide-dock_XP_5RGK_M-PRO_VALIDATION

> <s_m_Source_File>
glide-dock_XP_5RGK_M-PRO_VALIDATION_pv.maegz

> <i_m_Source_File_Index>
2975

> <CID>
ALP-POS-b0bc6a46-4

> <Potency>
99.5

> <pIC50>
4.00218

> <Source>
Postera

> <smiles>
CCOC1CC2(C1)CC2N(C(=O)c1ccco1)C(C(=O)NCCc1cccc(F)c1)c1cccnc1

> <Outcome>
Inactive

> <StandardizerResult>
Clear Stereo (ID: ClearStereo)
Wedge Clean (ID: WedgeClean)
Mesomerize (ID: Mesomerize)
Tautomerize (ID: Tautomerize)
Aromatize (ID: Aromatize)
Add Explicit Hydrogens (ID: AddExplicitH)
Neutralize (ID: Neutralize)
Clean 2D (ID: Clean2D)

> <chiral flag>
0

> <version>
0

> <i_lp_mmshare_version>
41011

> <i_f3d_flags>
0

> <s_epik_input>
W0NIM11bQ0gyXU9bQ0BIXShbQ0gyXTEpW0NIMl1bQ0BAXTEyW0NIMl1bQ0BIXTJOKEMoPU8pYzNbY0hdW2NIXVtjSF1vMylbQ0BIXShjNFtjSF1bY0hdW2NIXW5bY0hdNClDKD1PKVtOSF1bQ0gyXVtDSDJdYzVbY0hdW2NIXVtjSF1jKEYpW2NIXTU=

> <s_epik_cmdline>
J2VwaWtfcHl0aG9uJywgJy1waHQnLCAnMC41JywgJy1waCcsICc3LjQnLCAnLXRuJywgJzgnLCAnLW1hJywgJzIwMCcsICctaW1hZScsICc8aW5maWxlLm1hZT4nLCAnLW9tYWUnLCAnPG91dGZpbGUubWFlPic=

> <r_lp_tautomer_probability>
1.0

> <r_epik_Ionization_Penalty>
8.0E-4

> <r_epik_Ionization_Penalty_Charging>
0.0

> <r_epik_Ionization_Penalty_Neutral>
8.0E-4

> <r_epik_State_Penalty>
0.0

> <r_epik_Charging_Adjusted_Penalty>
0.0

> <i_epik_Tot_Q>
0

> <i_epik_Tot_abs_Q>
0

> <s_lp_Force_Field>
OPLS3

> <r_lp_Energy>
68.3472

> <b_lp_Chiralities_Consistent>
1

> <s_lp_Variant>
ligprep_COVID_compounds-withfrags-smallmolecules-forvalidation.maegz:45-5

> <i_glide_original_lignum>
199

> <s_i_glide_gridfile>
glide-grid_5RGK_M-PRO_COVID

> <i_i_glide_lignum>
199

> <r_i_docking_score>
-3.22416449796078

> <r_i_glide_ligand_efficiency>
-0.089560124943355

> <r_i_glide_ligand_efficiency_sa>
-0.295721016611631

> <r_i_glide_ligand_efficiency_ln>
-0.703425586596745

> <r_glide_XP_GScore>
-3.22416449796078

> <r_i_glide_gscore>
-3.22416449796078

> <r_i_glide_evdw>
-31.0859470367432

> <r_i_glide_ecoul>
-8.80314540863037

> <r_i_glide_energy>
-39.8890924453735

> <r_i_glide_einternal>
18.0320262908936

> <r_i_glide_emodel>
-45.8127238337524

> <r_glide_XP_HBond>
-0.863110944404424

> <i_i_glide_confnum>
1

> <i_i_glide_posenum>
34

> <r_i_glide_eff_state_penalty>
0.0

> <i_glide_XP_PoseRank>
1

> <MW>
491.22

> <cLogP>
4.31

> <TPSA>
84.67

> <Rotatable Bonds>
10

> <Fraction sp3>
0.39

> <HBA>
5

> <HBD>
1

> <s_epik_Chemistry_Notes>


> <Structure ID>


> <Submission Fragments>


$$$$
ligprep_COVID_compounds-withfrags-smallmolecules-forvalidation.maegz:16
                    3D
 Structure written by MMmdl.
 74 77  0  0  1  0            999 V2000
    4.0540    1.6155   20.2957 C   0  0  0  0  0  0
    3.7852    2.1240   21.5932 O   0  0  0  0  0  0
    2.5109    2.5687   21.8761 C   0  0  0  0  0  0
    1.4007    2.3251   21.0279 C   0  0  0  0  0  0
    0.1212    2.8076   21.3614 C   0  0  0  0  0  0
   -0.0692    3.5316   22.5516 C   0  0  0  0  0  0
    1.0236    3.7793   23.4046 C   0  0  0  0  0  0
    2.3152    3.3126   23.0684 C   0  0  0  0  0  0
    3.4811    3.5957   23.9796 C   0  0  0  0  0  0
    3.9729    2.6348   24.5707 O   0  0  0  0  0  0
    3.9018    4.8894   24.1513 N   0  0  0  0  0  0
    3.2615    5.9990   23.5016 C   0  0  0  0  0  0
    2.7861    7.0974   24.2576 C   0  0  0  0  0  0
    2.2445    8.2322   23.6223 C   0  0  0  0  0  0
    2.1636    8.3040   22.2085 C   0  0  0  0  0  0
    1.6248    9.5461   21.4709 C   0  0  0  0  0  0
    1.2105   10.6827   22.4316 C   0  0  0  0  0  0
    0.3853    9.1601   20.6340 C   0  0  0  0  0  0
    2.7227   10.1029   20.5361 C   0  0  0  0  0  0
    2.6247    7.1963   21.4586 C   0  0  0  0  0  0
    3.1747    6.0686   22.0931 C   0  0  0  0  0  0
    5.1332    5.2718   24.9065 C   0  0  2  0  0  0
    6.3384    4.2856   24.9559 C   0  0  0  0  0  0
    6.8036    3.8720   26.0211 O   0  0  0  0  0  0
    6.8749    3.9506   23.7739 N   0  0  0  0  0  0
    8.1042    3.1888   23.5767 C   0  0  0  0  0  0
    9.3367    3.9219   24.1492 C   0  0  0  0  0  0
   10.6662    3.3942   23.6318 C   0  0  0  0  0  0
   11.0339    2.0419   23.8029 C   0  0  0  0  0  0
   12.2601    1.5714   23.2909 C   0  0  0  0  0  0
   13.1208    2.4487   22.6016 C   0  0  0  0  0  0
   12.7658    3.8011   22.4432 C   0  0  0  0  0  0
   13.5833    4.6502   21.7781 F   0  0  0  0  0  0
   11.5515    4.2731   22.9712 C   0  0  0  0  0  0
    4.8239    5.6317   26.3382 C   0  0  0  0  0  0
    5.5911    6.6171   27.0039 C   0  0  0  0  0  0
    5.3162    6.9501   28.3407 C   0  0  0  0  0  0
    4.2643    6.2805   28.9878 C   0  0  0  0  0  0
    3.5099    5.3411   28.3830 N   0  0  0  0  0  0
    3.7971    5.0259   27.1042 C   0  0  0  0  0  0
    5.1307    1.4987   20.1743 H   0  0  0  0  0  0
    3.7090    2.2926   19.5131 H   0  0  0  0  0  0
    3.5938    0.6372   20.1574 H   0  0  0  0  0  0
    1.5091    1.7768   20.1045 H   0  0  0  0  0  0
   -0.7131    2.6233   20.6998 H   0  0  0  0  0  0
   -1.0519    3.9029   22.8095 H   0  0  0  0  0  0
    0.8695    4.3409   24.3148 H   0  0  0  0  0  0
    2.8380    7.0877   25.3361 H   0  0  0  0  0  0
    1.9078    9.0442   24.2490 H   0  0  0  0  0  0
    0.8496   11.5532   21.8798 H   0  0  0  0  0  0
    2.0531   11.0189   23.0376 H   0  0  0  0  0  0
    0.4088   10.3733   23.1034 H   0  0  0  0  0  0
   -0.4253    8.7885   21.2676 H   0  0  0  0  0  0
    0.6105    8.3812   19.9065 H   0  0  0  0  0  0
    0.0005   10.0172   20.0744 H   0  0  0  0  0  0
    2.3815   10.9934   20.0028 H   0  0  0  0  0  0
    3.0286    9.3787   19.7784 H   0  0  0  0  0  0
    3.6169   10.3791   21.0980 H   0  0  0  0  0  0
    2.5802    7.2047   20.3776 H   0  0  0  0  0  0
    3.5595    5.2650   21.4791 H   0  0  0  0  0  0
    5.5391    6.1544   24.4088 H   0  0  0  0  0  0
    6.4064    4.2489   22.9099 H   0  0  0  0  0  0
    8.0033    2.1896   24.0031 H   0  0  0  0  0  0
    8.2176    3.0626   22.5005 H   0  0  0  0  0  0
    9.2678    4.9839   23.9112 H   0  0  0  0  0  0
    9.3357    3.8586   25.2381 H   0  0  0  0  0  0
   10.3710    1.3602   24.3168 H   0  0  0  0  0  0
   12.5396    0.5356   23.4181 H   0  0  0  0  0  0
   14.0564    2.0866   22.2024 H   0  0  0  0  0  0
   11.2850    5.3114   22.8324 H   0  0  0  0  0  0
    6.3978    7.1157   26.4865 H   0  0  0  0  0  0
    5.9003    7.6956   28.8606 H   0  0  0  0  0  0
    4.0195    6.5072   30.0149 H   0  0  0  0  0  0
    3.1619    4.2615   26.6800 H   0  0  0  0  0  0
  1  2  1  0  0  0
  1 41  1  0  0  0
  1 42  1  0  0  0
  1 43  1  0  0  0
  2  3  1  0  0  0
  3  4  2  0  0  0
  3  8  1  0  0  0
  4  5  1  0  0  0
  4 44  1  0  0  0
  5  6  2  0  0  0
  5 45  1  0  0  0
  6  7  1  0  0  0
  6 46  1  0  0  0
  7  8  2  0  0  0
  7 47  1  0  0  0
  8  9  1  0  0  0
  9 10  2  0  0  0
  9 11  1  0  0  0
 11 12  1  0  0  0
 11 22  1  0  0  0
 12 13  2  0  0  0
 12 21  1  0  0  0
 13 14  1  0  0  0
 13 48  1  0  0  0
 14 15  2  0  0  0
 14 49  1  0  0  0
 15 16  1  0  0  0
 15 20  1  0  0  0
 16 17  1  0  0  0
 16 18  1  0  0  0
 16 19  1  0  0  0
 17 50  1  0  0  0
 17 51  1  0  0  0
 17 52  1  0  0  0
 18 53  1  0  0  0
 18 54  1  0  0  0
 18 55  1  0  0  0
 19 56  1  0  0  0
 19 57  1  0  0  0
 19 58  1  0  0  0
 20 21  2  0  0  0
 20 59  1  0  0  0
 21 60  1  0  0  0
 22 23  1  0  0  0
 22 35  1  0  0  0
 22 61  1  0  0  0
 23 24  2  0  0  0
 23 25  1  0  0  0
 25 26  1  0  0  0
 25 62  1  0  0  0
 26 27  1  0  0  0
 26 63  1  0  0  0
 26 64  1  0  0  0
 27 28  1  0  0  0
 27 65  1  0  0  0
 27 66  1  0  0  0
 28 29  2  0  0  0
 28 34  1  0  0  0
 29 30  1  0  0  0
 29 67  1  0  0  0
 30 31  2  0  0  0
 30 68  1  0  0  0
 31 32  1  0  0  0
 31 69  1  0  0  0
 32 33  1  0  0  0
 32 34  2  0  0  0
 34 70  1  0  0  0
 35 36  2  0  0  0
 35 40  1  0  0  0
 36 37  1  0  0  0
 36 71  1  0  0  0
 37 38  2  0  0  0
 37 72  1  0  0  0
 38 39  1  0  0  0
 38 73  1  0  0  0
 39 40  2  0  0  0
 40 74  1  0  0  0
M  END
> <s_m_entry_id>
3009

> <s_m_entry_name>
Compounds-withfrags-for-validation-docking.1901

> <s_m_Source_Path>
/home/rodolpho/data/melina/maestro/glide-dock_XP_5RGK_M-PRO_VALIDATION

> <s_m_Source_File>
glide-dock_XP_5RGK_M-PRO_VALIDATION_pv.maegz

> <i_m_Source_File_Index>
3009

> <CID>
ALP-POS-02c6a514-40

> <Potency>
99.5

> <pIC50>
4.00218

> <Source>
Postera

> <smiles>
COc1ccccc1C(=O)N(c1ccc(C(C)(C)C)cc1)C(C(=O)NCCc1cccc(F)c1)c1cccnc1

> <Outcome>
Inactive

> <StandardizerResult>
Clear Stereo (ID: ClearStereo)
Wedge Clean (ID: WedgeClean)
Mesomerize (ID: Mesomerize)
Tautomerize (ID: Tautomerize)
Aromatize (ID: Aromatize)
Add Explicit Hydrogens (ID: AddExplicitH)
Neutralize (ID: Neutralize)
Clean 2D (ID: Clean2D)

> <chiral flag>
0

> <version>
0

> <i_lp_mmshare_version>
41011

> <i_f3d_flags>
0

> <s_epik_input>
W0NIM11PYzFbY0hdW2NIXVtjSF1bY0hdYzFDKD1PKU4oYzJbY0hdW2NIXWMoQyhbQ0gzXSkoW0NIM10pW0NIM10pW2NIXVtjSF0yKVtDQEBIXShjM1tjSF1bY0hdW2NIXW5bY0hdMylDKD1PKVtOSF1bQ0gyXVtDSDJdYzRbY0hdW2NIXVtjSF1jKEYpW2NIXTQ=

> <s_epik_cmdline>
J2VwaWtfcHl0aG9uJywgJy1waHQnLCAnMC41JywgJy1waCcsICc3LjQnLCAnLXRuJywgJzgnLCAnLW1hJywgJzIwMCcsICctaW1hZScsICc8aW5maWxlLm1hZT4nLCAnLW9tYWUnLCAnPG91dGZpbGUubWFlPic=

> <r_lp_tautomer_probability>
1.0

> <r_epik_Ionization_Penalty>
6.0E-4

> <r_epik_Ionization_Penalty_Charging>
0.0

> <r_epik_Ionization_Penalty_Neutral>
6.0E-4

> <r_epik_State_Penalty>
0.0

> <r_epik_Charging_Adjusted_Penalty>
0.0

> <i_epik_Tot_Q>
0

> <i_epik_Tot_abs_Q>
0

> <s_lp_Force_Field>
OPLS3

> <r_lp_Energy>
86.151

> <b_lp_Chiralities_Consistent>
1

> <s_lp_Variant>
ligprep_COVID_compounds-withfrags-smallmolecules-forvalidation.maegz:16-2

> <i_glide_original_lignum>
126

> <s_i_glide_gridfile>
glide-grid_5RGK_M-PRO_COVID

> <i_i_glide_lignum>
126

> <r_i_docking_score>
-3.18831030035258

> <r_i_glide_ligand_efficiency>
-0.0797077575088144

> <r_i_glide_ligand_efficiency_sa>
-0.272596695872031

> <r_i_glide_ligand_efficiency_ln>
-0.679972759281583

> <r_glide_XP_GScore>
-3.18831030035258

> <r_i_glide_gscore>
-3.18831030035258

> <r_i_glide_evdw>
-26.3427753448486

> <r_i_glide_ecoul>
-9.8446102142334

> <r_i_glide_energy>
-36.187385559082

> <r_i_glide_einternal>
8.13095474243164

> <r_i_glide_emodel>
-48.9278177250965

> <r_glide_XP_HBond>
-0.894615099220686

> <i_i_glide_confnum>
4

> <i_i_glide_posenum>
24

> <r_i_glide_eff_state_penalty>
0.0

> <i_glide_XP_PoseRank>
1

> <MW>
539.26

> <cLogP>
6.27

> <TPSA>
71.53

> <Rotatable Bonds>
9

> <Fraction sp3>
0.24

> <HBA>
4

> <HBD>
1

> <s_epik_Chemistry_Notes>


> <Structure ID>


> <Submission Fragments>


$$$$
ligprep_COVID_compounds-withfrags-smallmolecules-forvalidation.maegz:13
                    3D
 Structure written by MMmdl.
 73 76  0  0  1  0            999 V2000
    8.9618    8.0198   26.0970 C   0  0  0  0  0  0
    7.8119    7.1824   26.6964 C   0  0  0  0  0  0
    8.0242    7.1269   28.2256 C   0  0  0  0  0  0
    6.4703    7.8935   26.4292 C   0  0  0  0  0  0
    7.7917    5.7875   26.0441 C   0  0  0  0  0  0
    7.6648    5.6756   24.6420 C   0  0  0  0  0  0
    7.6548    4.4165   24.0194 C   0  0  0  0  0  0
    7.7924    3.2258   24.7765 C   0  0  0  0  0  0
    7.7605    1.9579   24.1071 N   0  0  0  0  0  0
    6.6332    1.7340   23.3705 C   0  0  0  0  0  0
    5.5499    2.2356   23.6904 O   0  0  0  0  0  0
    6.6344    0.8905   22.0912 C   0  0  1  0  0  0
    5.4880   -0.1302   22.0101 C   0  0  0  0  0  0
    5.0427   -0.0768   20.5484 C   0  0  0  0  0  0
    5.4079    1.3033   20.0431 C   0  0  0  0  0  0
    6.3749    1.8363   21.0021 N   0  3  0  0  0  0
    8.9217    1.0044   24.1655 C   0  0  2  0  0  0
    9.0430    0.2131   25.4904 C   0  0  0  0  0  0
   10.0700    0.2363   26.1705 O   0  0  0  0  0  0
    7.9757   -0.5297   25.8247 N   0  0  0  0  0  0
    7.8265   -1.3209   27.0395 C   0  0  0  0  0  0
    8.2503   -2.7935   26.8764 C   0  0  0  0  0  0
    7.6242   -3.5173   25.7022 C   0  0  0  0  0  0
    8.3447   -3.6812   24.5013 C   0  0  0  0  0  0
    7.7816   -4.4116   23.4386 C   0  0  0  0  0  0
    6.5003   -4.9808   23.5717 C   0  0  0  0  0  0
    5.7792   -4.8191   24.7700 C   0  0  0  0  0  0
    4.5458   -5.3646   24.9000 F   0  0  0  0  0  0
    6.3383   -4.0842   25.8319 C   0  0  0  0  0  0
   10.3018    1.5537   23.8149 C   0  0  0  0  0  0
   10.6960    2.9160   23.7707 C   0  0  0  0  0  0
   11.9763    3.2789   23.3264 C   0  0  0  0  0  0
   12.8732    2.2652   22.9623 C   0  0  0  0  0  0
   12.5524    0.9626   23.0154 N   0  0  0  0  0  0
   11.3171    0.6364   23.4401 C   0  0  0  0  0  0
    7.9201    3.3310   26.1719 C   0  0  0  0  0  0
    7.8941    4.5936   26.7971 C   0  0  0  0  0  0
    9.0223    9.0045   26.5623 H   0  0  0  0  0  0
    8.8373    8.1833   25.0271 H   0  0  0  0  0  0
    9.9238    7.5281   26.2443 H   0  0  0  0  0  0
    8.9672    6.6420   28.4845 H   0  0  0  0  0  0
    7.2181    6.5885   28.7271 H   0  0  0  0  0  0
    8.0512    8.1281   28.6575 H   0  0  0  0  0  0
    6.4465    8.8831   26.8870 H   0  0  0  0  0  0
    5.6346    7.3225   26.8359 H   0  0  0  0  0  0
    6.2838    8.0291   25.3635 H   0  0  0  0  0  0
    7.5679    6.5561   24.0256 H   0  0  0  0  0  0
    7.5588    4.3742   22.9440 H   0  0  0  0  0  0
    7.5743    0.4039   21.8466 H   0  0  0  0  0  0
    5.8080   -1.1315   22.3042 H   0  0  0  0  0  0
    4.6444    0.1381   22.6482 H   0  0  0  0  0  0
    5.5311   -0.8538   19.9584 H   0  0  0  0  0  0
    3.9719   -0.1637   20.4538 H   0  0  0  0  0  0
    5.8232    1.2740   19.0349 H   0  0  0  0  0  0
    4.5370    1.9609   20.0277 H   0  0  0  0  0  0
    5.9933    2.7136   21.3707 H   0  0  0  0  0  0
    8.7471    0.1888   23.4720 H   0  0  0  0  0  0
    7.1528   -0.4670   25.2436 H   0  0  0  0  0  0
    8.3814   -0.8580   27.8548 H   0  0  0  0  0  0
    6.7747   -1.2783   27.3237 H   0  0  0  0  0  0
    9.3340   -2.8653   26.7995 H   0  0  0  0  0  0
    7.9749   -3.3512   27.7708 H   0  0  0  0  0  0
    9.3365   -3.2651   24.3995 H   0  0  0  0  0  0
    8.3434   -4.5443   22.5290 H   0  0  0  0  0  0
    6.0684   -5.5444   22.7596 H   0  0  0  0  0  0
    5.7836   -3.9743   26.7525 H   0  0  0  0  0  0
   10.0541    3.7269   24.0488 H   0  0  0  0  0  0
   12.2662    4.3179   23.2718 H   0  0  0  0  0  0
   13.8659    2.5055   22.6105 H   0  0  0  0  0  0
   11.1055   -0.4223   23.4356 H   0  0  0  0  0  0
    7.9937    2.4457   26.7847 H   0  0  0  0  0  0
    7.9750    4.6134   27.8726 H   0  0  0  0  0  0
    7.2575    2.0482   20.5579 H   0  0  0  0  0  0
  1  2  1  0  0  0
  1 38  1  0  0  0
  1 39  1  0  0  0
  1 40  1  0  0  0
  2  3  1  0  0  0
  2  4  1  0  0  0
  2  5  1  0  0  0
  3 41  1  0  0  0
  3 42  1  0  0  0
  3 43  1  0  0  0
  4 44  1  0  0  0
  4 45  1  0  0  0
  4 46  1  0  0  0
  5  6  2  0  0  0
  5 37  1  0  0  0
  6  7  1  0  0  0
  6 47  1  0  0  0
  7  8  2  0  0  0
  7 48  1  0  0  0
  8  9  1  0  0  0
  8 36  1  0  0  0
  9 10  1  0  0  0
  9 17  1  0  0  0
 10 11  2  0  0  0
 10 12  1  0  0  0
 12 13  1  0  0  0
 12 16  1  0  0  0
 12 49  1  0  0  0
 13 14  1  0  0  0
 13 50  1  0  0  0
 13 51  1  0  0  0
 14 15  1  0  0  0
 14 52  1  0  0  0
 14 53  1  0  0  0
 15 16  1  0  0  0
 15 54  1  0  0  0
 15 55  1  0  0  0
 16 56  1  0  0  0
 16 73  1  0  0  0
 17 18  1  0  0  0
 17 30  1  0  0  0
 17 57  1  0  0  0
 18 19  2  0  0  0
 18 20  1  0  0  0
 20 21  1  0  0  0
 20 58  1  0  0  0
 21 22  1  0  0  0
 21 59  1  0  0  0
 21 60  1  0  0  0
 22 23  1  0  0  0
 22 61  1  0  0  0
 22 62  1  0  0  0
 23 24  2  0  0  0
 23 29  1  0  0  0
 24 25  1  0  0  0
 24 63  1  0  0  0
 25 26  2  0  0  0
 25 64  1  0  0  0
 26 27  1  0  0  0
 26 65  1  0  0  0
 27 28  1  0  0  0
 27 29  2  0  0  0
 29 66  1  0  0  0
 30 31  2  0  0  0
 30 35  1  0  0  0
 31 32  1  0  0  0
 31 67  1  0  0  0
 32 33  2  0  0  0
 32 68  1  0  0  0
 33 34  1  0  0  0
 33 69  1  0  0  0
 34 35  2  0  0  0
 35 70  1  0  0  0
 36 37  2  0  0  0
 36 71  1  0  0  0
 37 72  1  0  0  0
M  CHG  1  16   1
M  END
> <s_m_entry_id>
3042

> <s_m_entry_name>
Compounds-withfrags-for-validation-docking.1904

> <s_m_Source_Path>
/home/rodolpho/data/melina/maestro/glide-dock_XP_5RGK_M-PRO_VALIDATION

> <s_m_Source_File>
glide-dock_XP_5RGK_M-PRO_VALIDATION_pv.maegz

> <i_m_Source_File_Index>
3042

> <CID>
ALP-POS-02c6a514-51

> <Potency>
99.5

> <pIC50>
4.00218

> <Source>
Postera

> <smiles>
CC(C)(C)c1ccc(N(C(=O)C2CCCN2)C(C(=O)NCCc2cccc(F)c2)c2cccnc2)cc1

> <Outcome>
Inactive

> <StandardizerResult>
Clear Stereo (ID: ClearStereo)
Wedge Clean (ID: WedgeClean)
Mesomerize (ID: Mesomerize)
Tautomerize (ID: Tautomerize)
Aromatize (ID: Aromatize)
Add Explicit Hydrogens (ID: AddExplicitH)
Neutralize (ID: Neutralize)
Clean 2D (ID: Clean2D)

> <chiral flag>
0

> <version>
0

> <i_lp_mmshare_version>
41011

> <i_f3d_flags>
0

> <s_epik_input>
W0NIM11DKFtDSDNdKShbQ0gzXSljMVtjSF1bY0hdYyhbY0hdW2NIXTEpTihDKD1PKVtDQEhdMltDSDJdW0NIMl1bQ0gyXVtOSF0yKVtDQEBIXShjM1tjSF1bY0hdW2NIXW5bY0hdMylDKD1PKVtOSF1bQ0gyXVtDSDJdYzRbY0hdW2NIXVtjSF1jKEYpW2NIXTQ=

> <s_epik_cmdline>
J2VwaWtfcHl0aG9uJywgJy1waHQnLCAnMC41JywgJy1waCcsICc3LjQnLCAnLXRuJywgJzgnLCAnLW1hJywgJzIwMCcsICctaW1hZScsICc8aW5maWxlLm1hZT4nLCAnLW9tYWUnLCAnPG91dGZpbGUubWFlPic=

> <r_epik_Ionization_Penalty>
0.1422

> <r_epik_Ionization_Penalty_Charging>
0.1417

> <r_epik_Ionization_Penalty_Neutral>
4.0E-4

> <r_epik_State_Penalty>
0.131

> <r_epik_Charging_Adjusted_Penalty>
0.272745

> <i_epik_Tot_Q>
1

> <i_epik_Tot_abs_Q>
1

> <s_lp_Force_Field>
OPLS3

> <r_lp_Energy>
78.1124

> <b_lp_Chiralities_Consistent>
1

> <s_lp_Variant>
ligprep_COVID_compounds-withfrags-smallmolecules-forvalidation.maegz:13-3

> <i_glide_original_lignum>
119

> <s_i_glide_gridfile>
glide-grid_5RGK_M-PRO_COVID

> <i_i_glide_lignum>
119

> <r_i_docking_score>
-3.15260020588383

> <r_i_glide_ligand_efficiency>
-0.0852054109698332

> <r_i_glide_ligand_efficiency_sa>
-0.283923331970411

> <r_i_glide_ligand_efficiency_ln>
-0.683725077221317

> <r_glide_XP_GScore>
-3.28362920588383

> <r_i_glide_gscore>
-3.28362920588383

> <r_i_glide_evdw>
-34.238109588623

> <r_i_glide_ecoul>
-14.1443948745728

> <r_i_glide_energy>
-48.3825044631958

> <r_i_glide_einternal>
9.0785551071167

> <r_i_glide_emodel>
-55.7898253624992

> <r_glide_XP_HBond>
-1.32625131956674

> <i_i_glide_confnum>
2

> <i_i_glide_posenum>
13

> <r_i_glide_eff_state_penalty>
0.131029

> <i_glide_XP_PoseRank>
1

> <MW>
502.27

> <cLogP>
4.7

> <TPSA>
74.33

> <Rotatable Bonds>
8

> <Fraction sp3>
0.37

> <HBA>
4

> <HBD>
2

> <r_lp_tautomer_probability>


> <s_epik_Chemistry_Notes>


> <Structure ID>


> <Submission Fragments>


$$$$
ligprep_COVID_compounds-withfrags-smallmolecules-forvalidation.maegz:6
                    3D
 Structure written by MMmdl.
 57 60  0  0  1  0            999 V2000
    2.1332    1.1419   23.7010 C   0  0  0  0  0  0
    3.3490    2.0274   23.3229 C   0  0  1  0  0  0
    4.2930    1.2088   22.4206 C   0  0  0  0  0  0
    5.2357    0.3428   22.9984 C   0  0  0  0  0  0
    6.1105   -0.4082   22.2291 C   0  0  0  0  0  0
    6.0580   -0.3130   20.8493 C   0  0  0  0  0  0
    5.1288    0.5230   20.2351 C   0  0  0  0  0  0
    5.1635    0.5351   18.8616 O   0  0  0  0  0  0
    4.2198    1.3000   21.0032 C   0  0  0  0  0  0
    3.1893    2.1894   20.3213 C   0  0  0  0  0  0
    3.0835    2.2388   19.0938 O   0  0  0  0  0  0
    2.3380    3.0072   21.2254 C   0  0  0  0  0  0
    2.9550    3.3533   22.5867 C   0  0  1  0  0  0
    2.1067    4.3645   23.4444 C   0  0  2  0  0  0
    1.0461    5.2215   22.6664 C   0  0  2  0  0  0
    0.0935    6.1753   23.5088 C   0  0  2  0  0  0
    0.8679    6.8137   24.7082 N   0  3  0  0  0  0
    0.7049    6.1262   26.0843 C   0  0  0  0  0  0
    0.6582    8.3365   24.8315 C   0  0  0  0  0  0
   -1.2556    5.5058   23.8865 C   0  0  0  0  0  0
   -1.9903    6.3435   24.5419 O   0  5  0  0  0  0
   -1.6770    4.2607   23.4959 C   0  0  0  0  0  0
   -2.9620    3.7131   23.9494 C   0  0  0  0  0  0
   -3.5572    4.3458   24.9686 N   0  0  0  0  0  0
   -3.4799    2.7148   23.4499 O   0  0  0  0  0  0
   -0.8067    3.4952   22.5630 C   0  0  0  0  0  0
   -0.8726    2.2656   22.4719 O   0  0  0  0  0  0
    0.1865    4.3336   21.7050 C   0  0  2  0  0  0
    1.1056    3.4355   20.8472 C   0  0  0  0  0  0
    0.4801    3.0628   19.6874 O   0  0  0  0  0  0
   -0.5770    5.2090   20.8713 O   0  0  0  0  0  0
    3.0397    5.1729   24.1451 O   0  0  0  0  0  0
    3.9586    2.3694   24.5602 O   0  0  0  0  0  0
    1.5729    0.8319   22.8183 H   0  0  0  0  0  0
    1.4311    1.6439   24.3660 H   0  0  0  0  0  0
    2.4487    0.2295   24.2095 H   0  0  0  0  0  0
    5.2954    0.2456   24.0725 H   0  0  0  0  0  0
    6.8278   -1.0617   22.7031 H   0  0  0  0  0  0
    6.7444   -0.8992   20.2550 H   0  0  0  0  0  0
    4.7500    1.3145   18.4842 H   0  0  0  0  0  0
    3.8840    3.8684   22.3220 H   0  0  0  0  0  0
    1.5634    3.8175   24.2114 H   0  0  0  0  0  0
    1.6405    5.8832   22.0315 H   0  0  0  0  0  0
   -0.1494    7.0149   22.8528 H   0  0  0  0  0  0
   -0.2579    6.4125   26.5077 H   0  0  0  0  0  0
    1.5256    6.4824   26.7077 H   0  0  0  0  0  0
    0.7702    5.0492   25.9380 H   0  0  0  0  0  0
   -0.3904    8.5131   25.0736 H   0  0  0  0  0  0
    0.9317    8.7797   23.8734 H   0  0  0  0  0  0
    1.3183    8.6911   25.6239 H   0  0  0  0  0  0
   -3.1453    5.1782   25.3630 H   0  0  0  0  0  0
   -4.4371    4.0060   25.3285 H   0  0  0  0  0  0
    1.0877    2.5649   19.1377 H   0  0  0  0  0  0
   -0.0569    5.9953   20.6906 H   0  0  0  0  0  0
    3.6180    5.5955   23.5054 H   0  0  0  0  0  0
    4.5510    3.1100   24.4119 H   0  0  0  0  0  0
    1.8425    6.6883   24.4714 H   0  0  0  0  0  0
  1  2  1  0  0  0
  1 34  1  0  0  0
  1 35  1  0  0  0
  1 36  1  0  0  0
  2  3  1  0  0  0
  2 33  1  0  0  0
  2 13  1  0  0  0
  3  4  2  0  0  0
  3  9  1  0  0  0
  4  5  1  0  0  0
  4 37  1  0  0  0
  5  6  2  0  0  0
  5 38  1  0  0  0
  6  7  1  0  0  0
  6 39  1  0  0  0
  7  8  1  0  0  0
  7  9  2  0  0  0
  8 40  1  0  0  0
  9 10  1  0  0  0
 10 11  2  0  0  0
 10 12  1  0  0  0
 12 13  1  0  0  0
 12 29  2  0  0  0
 13 14  1  0  0  0
 13 41  1  0  0  0
 14 15  1  0  0  0
 14 32  1  0  0  0
 14 42  1  0  0  0
 15 16  1  0  0  0
 15 28  1  0  0  0
 15 43  1  0  0  0
 16 17  1  0  0  0
 16 20  1  0  0  0
 16 44  1  0  0  0
 17 18  1  0  0  0
 17 19  1  0  0  0
 17 57  1  0  0  0
 18 45  1  0  0  0
 18 46  1  0  0  0
 18 47  1  0  0  0
 19 48  1  0  0  0
 19 49  1  0  0  0
 19 50  1  0  0  0
 20 21  1  0  0  0
 20 22  2  0  0  0
 22 23  1  0  0  0
 22 26  1  0  0  0
 23 24  1  0  0  0
 23 25  2  0  0  0
 24 51  1  0  0  0
 24 52  1  0  0  0
 26 27  2  0  0  0
 26 28  1  0  0  0
 28 29  1  0  0  0
 28 31  1  0  0  0
 29 30  1  0  0  0
 30 53  1  0  0  0
 31 54  1  0  0  0
 32 55  1  0  0  0
 33 56  1  0  0  0
M  CHG  2  17   1  21  -1
M  END
> <s_m_entry_id>
3062

> <s_m_entry_name>
Compounds-withfrags-for-validation-docking.1911

> <s_m_Source_Path>
/home/rodolpho/data/melina/maestro/glide-dock_XP_5RGK_M-PRO_VALIDATION

> <s_m_Source_File>
glide-dock_XP_5RGK_M-PRO_VALIDATION_pv.maegz

> <i_m_Source_File_Index>
3062

> <CID>
Oxitetracyclin

> <Potency>
15.15

> <pIC50>
4.81959

> <Source>
https://doi.org/10.1101/2020.03.23.004580

> <smiles>
C(C1(C2=C(C(=C(C(O[H])=C2C(O[H])=C2C1(C(C1(C(N(C([H])([H])[H])C([H])([H])[H])([H])C(=O)C(=C(N([H])[H])O[H])C(=O)C1(C2=O)O[H])[H])(O[H])[H])[H])[H])[H])[H])O[H])([H])([H])[H]

> <Outcome>
Inactive

> <StandardizerResult>
Clear Stereo (ID: ClearStereo)
Wedge Clean (ID: WedgeClean)
Mesomerize (ID: Mesomerize)
Tautomerize (ID: Tautomerize)
Aromatize (ID: Aromatize)
Add Explicit Hydrogens (ID: AddExplicitH)
Neutralize (ID: Neutralize)
Clean 2D (ID: Clean2D)

> <chiral flag>
0

> <version>
0

> <i_lp_mmshare_version>
41011

> <i_f3d_flags>
0

> <s_epik_input>
W09IXWMxW2NIXVtjSF1bY0hdYyhbQ0BAXTIoW0NIM10pW09IXSljMUMoPU8pQyg9QzNbT0hdKVtDQEhdMltDQEBIXShbT0hdKVtDQEBIXShbQ0BAXTM0W09IXSlbQ0BIXShOKFtDSDNdKVtDSDNdKUMoPU8pW0NASF0oQzQ9TylDKD1PKVtOSDJd

> <s_epik_cmdline>
J2VwaWtfcHl0aG9uJywgJy1waHQnLCAnMC41JywgJy1waCcsICc3LjQnLCAnLXRuJywgJzgnLCAnLW1hJywgJzIwMCcsICctaW1hZScsICc8aW5maWxlLm1hZT4nLCAnLW9tYWUnLCAnPG91dGZpbGUubWFlPic=

> <r_epik_Ionization_Penalty>
0.6144

> <r_epik_Ionization_Penalty_Charging>
0.5087

> <r_epik_Ionization_Penalty_Neutral>
0.1057

> <r_epik_State_Penalty>
0.5157

> <r_epik_Charging_Adjusted_Penalty>
1.02439

> <i_epik_Tot_Q>
0

> <i_epik_Tot_abs_Q>
2

> <s_lp_Force_Field>
OPLS3

> <r_lp_Energy>
58.4109

> <b_lp_Chiralities_Consistent>
1

> <s_lp_Variant>
ligprep_COVID_compounds-withfrags-smallmolecules-forvalidation.maegz:6-47

> <i_glide_original_lignum>
99

> <s_i_glide_gridfile>
glide-grid_5RGK_M-PRO_COVID

> <i_i_glide_lignum>
99

> <r_i_docking_score>
-3.13086837971346

> <r_i_glide_ligand_efficiency>
-0.0948747993852564

> <r_i_glide_ligand_efficiency_sa>
-0.304314175724998

> <r_i_glide_ligand_efficiency_ln>
-0.696288916879385

> <r_glide_XP_GScore>
-3.64657537971346

> <r_i_glide_gscore>
-3.64657537971346

> <r_i_glide_evdw>
-14.2007417678833

> <r_i_glide_ecoul>
-8.35667514801025

> <r_i_glide_energy>
-22.5574169158936

> <r_i_glide_einternal>
4.1685962677002

> <r_i_glide_emodel>
-24.5380183355319

> <r_glide_XP_HBond>
-1.4648746388043

> <i_i_glide_confnum>
1

> <i_i_glide_posenum>
8

> <r_i_glide_eff_state_penalty>
0.515707

> <i_glide_XP_PoseRank>
1

> <r_lp_tautomer_probability>


> <s_epik_Chemistry_Notes>


> <MW>


> <cLogP>


> <TPSA>


> <Rotatable Bonds>


> <Fraction sp3>


> <HBA>


> <HBD>


> <Structure ID>


> <Submission Fragments>


$$$$
ligprep_COVID_compounds-withfrags-smallmolecules-forvalidation.maegz:6
                    3D
 Structure written by MMmdl.
 56 59  0  0  1  0            999 V2000
    5.1526   -6.6475   26.7463 C   0  0  0  0  0  0
    4.8389   -5.2019   26.2636 C   0  0  2  0  0  0
    6.1476   -4.4877   25.8380 C   0  0  0  0  0  0
    7.0315   -5.1356   24.9581 C   0  0  0  0  0  0
    8.2359   -4.5686   24.5697 C   0  0  0  0  0  0
    8.5875   -3.3189   25.0490 C   0  0  0  0  0  0
    7.7285   -2.6235   25.8954 C   0  0  0  0  0  0
    8.1587   -1.3785   26.2874 O   0  0  0  0  0  0
    6.4839   -3.1805   26.2916 C   0  0  0  0  0  0
    5.5408   -2.3886   27.1732 C   0  0  0  0  0  0
    5.8762   -1.3637   27.7711 O   0  0  0  0  0  0
    4.1674   -2.9138   27.1881 C   0  0  0  0  0  0
    4.0975   -4.4321   27.4169 C   0  0  1  0  0  0
    2.6371   -4.8931   27.7454 C   0  0  2  0  0  0
    1.5717   -4.1004   26.9414 C   0  0  1  0  0  0
    0.1615   -4.7471   26.9016 C   0  0  1  0  0  0
   -0.4998   -4.9984   28.2073 N   0  0  0  0  0  0
   -1.9570   -4.9976   28.0929 C   0  0  0  0  0  0
   -0.0841   -6.2005   28.9350 C   0  0  0  0  0  0
   -0.6625   -3.9553   25.8692 C   0  0  0  0  0  0
   -1.5306   -4.7413   25.3204 O   0  5  0  0  0  0
   -0.4735   -2.6379   25.5395 C   0  0  0  0  0  0
   -1.3068   -2.0182   24.5076 C   0  0  0  0  0  0
   -1.5936   -0.7239   24.6882 N   0  0  0  0  0  0
   -1.7486   -2.6403   23.5426 O   0  0  0  0  0  0
    0.5812   -1.8335   26.2455 C   0  0  0  0  0  0
    0.6305   -0.6076   26.0993 O   0  0  0  0  0  0
    1.5961   -2.5606   27.2035 C   0  0  2  0  0  0
    3.0802   -2.0935   27.0907 C   0  0  0  0  0  0
    3.1794   -0.7329   26.9874 O   0  0  0  0  0  0
    1.1761   -2.2412   28.5200 O   0  0  0  0  0  0
    2.3990   -4.8575   29.1418 O   0  0  0  0  0  0
    3.9918   -5.3683   25.1402 O   0  0  0  0  0  0
    5.8680   -6.6400   27.5696 H   0  0  0  0  0  0
    5.5751   -7.2739   25.9607 H   0  0  0  0  0  0
    4.2685   -7.1758   27.1005 H   0  0  0  0  0  0
    6.7864   -6.1092   24.5617 H   0  0  0  0  0  0
    8.8961   -5.0990   23.8995 H   0  0  0  0  0  0
    9.5290   -2.8834   24.7461 H   0  0  0  0  0  0
    7.4465   -0.8175   26.6017 H   0  0  0  0  0  0
    4.6912   -4.6263   28.3152 H   0  0  0  0  0  0
    2.5243   -5.9475   27.4981 H   0  0  0  0  0  0
    1.9077   -4.2010   25.9074 H   0  0  0  0  0  0
    0.3679   -5.7260   26.4586 H   0  0  0  0  0  0
   -2.3132   -4.0660   27.6510 H   0  0  0  0  0  0
   -2.4205   -5.0850   29.0763 H   0  0  0  0  0  0
   -2.3101   -5.8246   27.4748 H   0  0  0  0  0  0
    0.9518   -6.1066   29.2627 H   0  0  0  0  0  0
   -0.1569   -7.0907   28.3081 H   0  0  0  0  0  0
   -0.6886   -6.3766   29.8215 H   0  0  0  0  0  0
   -1.2052   -0.2233   25.4737 H   0  0  0  0  0  0
   -2.1785   -0.2382   24.0247 H   0  0  0  0  0  0
    4.1042   -0.4853   26.9040 H   0  0  0  0  0  0
    1.7546   -2.6904   29.1405 H   0  0  0  0  0  0
    2.4937   -3.9484   29.4381 H   0  0  0  0  0  0
    4.1875   -6.2180   24.7384 H   0  0  0  0  0  0
  1  2  1  0  0  0
  1 34  1  0  0  0
  1 35  1  0  0  0
  1 36  1  0  0  0
  2  3  1  0  0  0
  2 33  1  0  0  0
  2 13  1  0  0  0
  3  4  2  0  0  0
  3  9  1  0  0  0
  4  5  1  0  0  0
  4 37  1  0  0  0
  5  6  2  0  0  0
  5 38  1  0  0  0
  6  7  1  0  0  0
  6 39  1  0  0  0
  7  8  1  0  0  0
  7  9  2  0  0  0
  8 40  1  0  0  0
  9 10  1  0  0  0
 10 11  2  0  0  0
 10 12  1  0  0  0
 12 13  1  0  0  0
 12 29  2  0  0  0
 13 14  1  0  0  0
 13 41  1  0  0  0
 14 15  1  0  0  0
 14 32  1  0  0  0
 14 42  1  0  0  0
 15 16  1  0  0  0
 15 28  1  0  0  0
 15 43  1  0  0  0
 16 17  1  0  0  0
 16 20  1  0  0  0
 16 44  1  0  0  0
 17 18  1  0  0  0
 17 19  1  0  0  0
 18 45  1  0  0  0
 18 46  1  0  0  0
 18 47  1  0  0  0
 19 48  1  0  0  0
 19 49  1  0  0  0
 19 50  1  0  0  0
 20 21  1  0  0  0
 20 22  2  0  0  0
 22 23  1  0  0  0
 22 26  1  0  0  0
 23 24  1  0  0  0
 23 25  2  0  0  0
 24 51  1  0  0  0
 24 52  1  0  0  0
 26 27  2  0  0  0
 26 28  1  0  0  0
 28 29  1  0  0  0
 28 31  1  0  0  0
 29 30  1  0  0  0
 30 53  1  0  0  0
 31 54  1  0  0  0
 32 55  1  0  0  0
 33 56  1  0  0  0
M  CHG  1  21  -1
M  END
> <s_m_entry_id>
3077

> <s_m_entry_name>
Compounds-withfrags-for-validation-docking.1911

> <s_m_Source_Path>
/home/rodolpho/data/melina/maestro/glide-dock_XP_5RGK_M-PRO_VALIDATION

> <s_m_Source_File>
glide-dock_XP_5RGK_M-PRO_VALIDATION_pv.maegz

> <i_m_Source_File_Index>
3077

> <CID>
Oxitetracyclin

> <Potency>
15.15

> <pIC50>
4.81959

> <Source>
https://doi.org/10.1101/2020.03.23.004580

> <smiles>
C(C1(C2=C(C(=C(C(O[H])=C2C(O[H])=C2C1(C(C1(C(N(C([H])([H])[H])C([H])([H])[H])([H])C(=O)C(=C(N([H])[H])O[H])C(=O)C1(C2=O)O[H])[H])(O[H])[H])[H])[H])[H])[H])O[H])([H])([H])[H]

> <Outcome>
Inactive

> <StandardizerResult>
Clear Stereo (ID: ClearStereo)
Wedge Clean (ID: WedgeClean)
Mesomerize (ID: Mesomerize)
Tautomerize (ID: Tautomerize)
Aromatize (ID: Aromatize)
Add Explicit Hydrogens (ID: AddExplicitH)
Neutralize (ID: Neutralize)
Clean 2D (ID: Clean2D)

> <chiral flag>
0

> <version>
0

> <i_lp_mmshare_version>
41011

> <i_f3d_flags>
0

> <s_epik_input>
W09IXWMxW2NIXVtjSF1bY0hdYyhbQ0BdMihbQ0gzXSlbT0hdKWMxQyg9TylDKD1DM1tPSF0pW0NASF0yW0NAQEhdKFtPSF0pW0NASF0oW0NAQF0zNFtPSF0pW0NAQEhdKE4oW0NIM10pW0NIM10pQyg9TylbQ0BIXShDND1PKUMoPU8pW05IMl0=

> <s_epik_cmdline>
J2VwaWtfcHl0aG9uJywgJy1waHQnLCAnMC41JywgJy1waCcsICc3LjQnLCAnLXRuJywgJzgnLCAnLW1hJywgJzIwMCcsICctaW1hZScsICc8aW5maWxlLm1hZT4nLCAnLW9tYWUnLCAnPG91dGZpbGUubWFlPic=

> <r_epik_Ionization_Penalty>
0.3646

> <r_epik_Ionization_Penalty_Charging>
0.0013

> <r_epik_Ionization_Penalty_Neutral>
0.3633

> <r_epik_State_Penalty>
0.3215

> <r_epik_Charging_Adjusted_Penalty>
0.322822

> <i_epik_Tot_Q>
-1

> <i_epik_Tot_abs_Q>
1

> <s_lp_Force_Field>
OPLS3

> <r_lp_Energy>
60.6352

> <b_lp_Chiralities_Consistent>
1

> <s_lp_Variant>
ligprep_COVID_compounds-withfrags-smallmolecules-forvalidation.maegz:6-3

> <i_glide_original_lignum>
55

> <s_i_glide_gridfile>
glide-grid_5RGK_M-PRO_COVID

> <i_i_glide_lignum>
55

> <r_i_docking_score>
-3.11291430571283

> <r_i_glide_ligand_efficiency>
-0.0943307365367524

> <r_i_glide_ligand_efficiency_sa>
-0.30256907546278

> <r_i_glide_ligand_efficiency_ln>
-0.692296023782865

> <r_glide_XP_GScore>
-3.43441130571283

> <r_i_glide_gscore>
-3.43441130571283

> <r_i_glide_evdw>
-16.4780464172363

> <r_i_glide_ecoul>
-6.82251119613647

> <r_i_glide_energy>
-23.3005576133728

> <r_i_glide_einternal>
0.0

> <r_i_glide_emodel>
-27.7021864121719

> <r_glide_XP_HBond>
-0.681464055160554

> <i_i_glide_confnum>
1

> <i_i_glide_posenum>
40

> <r_i_glide_eff_state_penalty>
0.321497

> <i_glide_XP_PoseRank>
1

> <r_lp_tautomer_probability>


> <s_epik_Chemistry_Notes>


> <MW>


> <cLogP>


> <TPSA>


> <Rotatable Bonds>


> <Fraction sp3>


> <HBA>


> <HBD>


> <Structure ID>


> <Submission Fragments>


$$$$
ligprep_COVID_compounds-withfrags-smallmolecules-forvalidation.maegz:6
                    3D
 Structure written by MMmdl.
 56 59  0  0  1  0            999 V2000
    5.5635    2.2187   23.6955 C   0  0  0  0  0  0
    4.3575    1.5312   23.0074 C   0  0  2  0  0  0
    4.9075    0.6450   21.8779 C   0  0  0  0  0  0
    5.7818   -0.4085   22.2357 C   0  0  0  0  0  0
    6.3749   -1.2222   21.2610 C   0  0  0  0  0  0
    6.1429   -0.9639   19.9054 C   0  0  0  0  0  0
    5.2814    0.0748   19.5171 C   0  0  0  0  0  0
    5.1131    0.2363   18.1694 O   0  0  0  0  0  0
    4.6128    0.8656   20.5032 C   0  0  0  0  0  0
    3.5397    1.8363   20.1300 C   0  0  0  0  0  0
    3.3298    2.1866   18.9708 O   0  0  0  0  0  0
    2.6524    2.3168   21.2138 C   0  0  0  0  0  0
    3.3342    2.6202   22.5327 C   0  0  1  0  0  0
    2.3760    3.3452   23.5368 C   0  0  1  0  0  0
    0.8700    2.9539   23.4918 C   0  0  2  0  0  0
    0.5117    1.6543   24.3041 C   0  0  1  0  0  0
   -0.1771    2.0671   25.5502 N   0  0  0  0  0  0
   -1.6071    2.3121   25.3866 C   0  0  0  0  0  0
    0.0227    1.1395   26.6581 C   0  0  0  0  0  0
   -0.2267    0.5230   23.5214 C   0  0  0  0  0  0
   -0.0238   -0.5604   24.1232 O   0  5  0  0  0  0
   -0.9433    0.8241   22.3591 C   0  0  0  0  0  0
   -1.6544   -0.2671   21.6574 C   0  0  0  0  0  0
   -2.3700    0.1190   20.5994 N   0  0  0  0  0  0
   -1.6307   -1.4626   21.9404 O   0  0  0  0  0  0
   -0.9861    2.2347   21.9010 C   0  0  0  0  0  0
   -1.9736    2.7398   21.3558 O   0  0  0  0  0  0
    0.3210    3.0479   22.0348 C   0  0  2  0  0  0
    1.3411    2.5730   20.9863 C   0  0  0  0  0  0
    0.7724    2.4647   19.7713 O   0  0  0  0  0  0
    0.0499    4.4191   21.7646 O   0  0  0  0  0  0
    2.8661    3.4781   24.8584 O   0  0  0  0  0  0
    3.7255    0.7085   23.9634 O   0  0  0  0  0  0
    6.1206    2.8170   22.9727 H   0  0  0  0  0  0
    6.2733    1.5058   24.1140 H   0  0  0  0  0  0
    5.2770    2.8893   24.5018 H   0  0  0  0  0  0
    6.0093   -0.6081   23.2721 H   0  0  0  0  0  0
    7.0351   -2.0261   21.5514 H   0  0  0  0  0  0
    6.6259   -1.5770   19.1596 H   0  0  0  0  0  0
    5.0122   -0.5871   17.7078 H   0  0  0  0  0  0
    3.9750    3.4359   22.2036 H   0  0  0  0  0  0
    2.3764    4.3827   23.1972 H   0  0  0  0  0  0
    0.3802    3.7735   24.0227 H   0  0  0  0  0  0
    1.4647    1.2484   24.6333 H   0  0  0  0  0  0
   -2.0302    2.7157   26.3064 H   0  0  0  0  0  0
   -2.1484    1.3967   25.1434 H   0  0  0  0  0  0
   -1.7923    3.0389   24.5958 H   0  0  0  0  0  0
   -0.3567    1.5721   27.5839 H   0  0  0  0  0  0
    1.0832    0.9324   26.8034 H   0  0  0  0  0  0
   -0.4934    0.1928   26.4982 H   0  0  0  0  0  0
   -2.4233    1.1110   20.3981 H   0  0  0  0  0  0
   -2.8819   -0.5626   20.0625 H   0  0  0  0  0  0
    1.4774    2.3314   19.1484 H   0  0  0  0  0  0
    0.8709    4.8789   21.6924 H   0  0  0  0  0  0
    3.6684    3.9765   24.8276 H   0  0  0  0  0  0
    4.2493   -0.0692   24.0867 H   0  0  0  0  0  0
  1  2  1  0  0  0
  1 34  1  0  0  0
  1 35  1  0  0  0
  1 36  1  0  0  0
  2  3  1  0  0  0
  2 33  1  0  0  0
  2 13  1  0  0  0
  3  4  2  0  0  0
  3  9  1  0  0  0
  4  5  1  0  0  0
  4 37  1  0  0  0
  5  6  2  0  0  0
  5 38  1  0  0  0
  6  7  1  0  0  0
  6 39  1  0  0  0
  7  8  1  0  0  0
  7  9  2  0  0  0
  8 40  1  0  0  0
  9 10  1  0  0  0
 10 11  2  0  0  0
 10 12  1  0  0  0
 12 13  1  0  0  0
 12 29  2  0  0  0
 13 14  1  0  0  0
 13 41  1  0  0  0
 14 15  1  0  0  0
 14 32  1  0  0  0
 14 42  1  0  0  0
 15 16  1  0  0  0
 15 28  1  0  0  0
 15 43  1  0  0  0
 16 17  1  0  0  0
 16 20  1  0  0  0
 16 44  1  0  0  0
 17 18  1  0  0  0
 17 19  1  0  0  0
 18 45  1  0  0  0
 18 46  1  0  0  0
 18 47  1  0  0  0
 19 48  1  0  0  0
 19 49  1  0  0  0
 19 50  1  0  0  0
 20 21  1  0  0  0
 20 22  2  0  0  0
 22 23  1  0  0  0
 22 26  1  0  0  0
 23 24  1  0  0  0
 23 25  2  0  0  0
 24 51  1  0  0  0
 24 52  1  0  0  0
 26 27  2  0  0  0
 26 28  1  0  0  0
 28 29  1  0  0  0
 28 31  1  0  0  0
 29 30  1  0  0  0
 30 53  1  0  0  0
 31 54  1  0  0  0
 32 55  1  0  0  0
 33 56  1  0  0  0
M  CHG  1  21  -1
M  END
> <s_m_entry_id>
3082

> <s_m_entry_name>
Compounds-withfrags-for-validation-docking.1911

> <s_m_Source_Path>
/home/rodolpho/data/melina/maestro/glide-dock_XP_5RGK_M-PRO_VALIDATION

> <s_m_Source_File>
glide-dock_XP_5RGK_M-PRO_VALIDATION_pv.maegz

> <i_m_Source_File_Index>
3082

> <CID>
Oxitetracyclin

> <Potency>
15.15

> <pIC50>
4.81959

> <Source>
https://doi.org/10.1101/2020.03.23.004580

> <smiles>
C(C1(C2=C(C(=C(C(O[H])=C2C(O[H])=C2C1(C(C1(C(N(C([H])([H])[H])C([H])([H])[H])([H])C(=O)C(=C(N([H])[H])O[H])C(=O)C1(C2=O)O[H])[H])(O[H])[H])[H])[H])[H])[H])O[H])([H])([H])[H]

> <Outcome>
Inactive

> <StandardizerResult>
Clear Stereo (ID: ClearStereo)
Wedge Clean (ID: WedgeClean)
Mesomerize (ID: Mesomerize)
Tautomerize (ID: Tautomerize)
Aromatize (ID: Aromatize)
Add Explicit Hydrogens (ID: AddExplicitH)
Neutralize (ID: Neutralize)
Clean 2D (ID: Clean2D)

> <chiral flag>
0

> <version>
0

> <i_lp_mmshare_version>
41011

> <i_f3d_flags>
0

> <s_epik_input>
W09IXWMxW2NIXVtjSF1bY0hdYyhbQ0BdMihbQ0gzXSlbT0hdKWMxQyg9TylDKD1DM1tPSF0pW0NASF0yW0NASF0oW09IXSlbQ0BASF0oW0NAQF0zNFtPSF0pW0NAQEhdKE4oW0NIM10pW0NIM10pQyg9TylbQ0BIXShDND1PKUMoPU8pW05IMl0=

> <s_epik_cmdline>
J2VwaWtfcHl0aG9uJywgJy1waHQnLCAnMC41JywgJy1waCcsICc3LjQnLCAnLXRuJywgJzgnLCAnLW1hJywgJzIwMCcsICctaW1hZScsICc8aW5maWxlLm1hZT4nLCAnLW9tYWUnLCAnPG91dGZpbGUubWFlPic=

> <r_epik_Ionization_Penalty>
0.3646

> <r_epik_Ionization_Penalty_Charging>
0.0013

> <r_epik_Ionization_Penalty_Neutral>
0.3633

> <r_epik_State_Penalty>
0.3215

> <r_epik_Charging_Adjusted_Penalty>
0.322822

> <i_epik_Tot_Q>
-1

> <i_epik_Tot_abs_Q>
1

> <s_lp_Force_Field>
OPLS3

> <r_lp_Energy>
66.1297

> <b_lp_Chiralities_Consistent>
1

> <s_lp_Variant>
ligprep_COVID_compounds-withfrags-smallmolecules-forvalidation.maegz:6-15

> <i_glide_original_lignum>
67

> <s_i_glide_gridfile>
glide-grid_5RGK_M-PRO_COVID

> <i_i_glide_lignum>
67

> <r_i_docking_score>
-3.10936874131547

> <r_i_glide_ligand_efficiency>
-0.094223295191378

> <r_i_glide_ligand_efficiency_sa>
-0.302224453659432

> <r_i_glide_ligand_efficiency_ln>
-0.691507508618843

> <r_glide_XP_GScore>
-3.43086574131547

> <r_i_glide_gscore>
-3.43086574131547

> <r_i_glide_evdw>
-24.4949378967285

> <r_i_glide_ecoul>
-5.91219663619995

> <r_i_glide_energy>
-30.4071345329285

> <r_i_glide_einternal>
3.38277649879456

> <r_i_glide_emodel>
-26.5690886919967

> <r_glide_XP_HBond>
-1.87694350471279

> <i_i_glide_confnum>
1

> <i_i_glide_posenum>
1

> <r_i_glide_eff_state_penalty>
0.321497

> <i_glide_XP_PoseRank>
1

> <r_lp_tautomer_probability>


> <s_epik_Chemistry_Notes>


> <MW>


> <cLogP>


> <TPSA>


> <Rotatable Bonds>


> <Fraction sp3>


> <HBA>


> <HBD>


> <Structure ID>


> <Submission Fragments>


$$$$
ligprep_COVID_compounds-withfrags-smallmolecules-forvalidation.maegz:76
                    3D
 Structure written by MMmdl.
 58 62  0  0  1  0            999 V2000
    9.5258   -1.3741   24.1751 O   0  0  0  0  0  0
    8.4525   -0.8244   24.4324 C   0  0  0  0  0  0
    8.3343    0.4702   24.7983 N   0  0  0  0  0  0
    9.2800    1.4353   24.4242 N   0  0  0  0  0  0
   10.5963    1.2986   24.1719 C   0  0  0  0  0  0
   11.2050    2.4116   23.7638 N   0  0  0  0  0  0
   10.1696    3.3410   23.7715 C   0  0  0  0  0  0
   10.1720    4.7143   23.4375 C   0  0  0  0  0  0
    8.9816    5.4689   23.5122 C   0  0  0  0  0  0
    7.7776    4.8666   23.9317 C   0  0  0  0  0  0
    7.7501    3.5031   24.2821 C   0  0  0  0  0  0
    8.9377    2.7563   24.1982 C   0  0  0  0  0  0
    7.1538   -1.6507   24.2899 C   0  0  2  0  0  0
    5.8986   -0.8242   23.8570 C   0  0  0  0  0  0
    5.7265   -0.4492   22.3844 C   0  0  0  0  0  0
    6.3766   -1.1287   21.3291 C   0  0  0  0  0  0
    6.1332   -0.7879   19.9873 C   0  0  0  0  0  0
    5.1747    0.1895   19.6768 C   0  0  0  0  0  0
    4.4659    0.8159   20.7158 C   0  0  0  0  0  0
    3.1361    1.8392   20.3428 Cl  0  0  0  0  0  0
    4.7718    0.5340   22.0600 C   0  0  0  0  0  0
    6.9382   -2.5335   25.5248 C   0  0  0  0  0  0
    5.8428   -2.3633   26.4001 C   0  0  0  0  0  0
    5.5779   -3.3149   27.4062 C   0  0  0  0  0  0
    6.4234   -4.4337   27.6119 C   0  0  0  0  0  0
    6.1273   -5.4002   28.6077 N   0  0  0  0  0  0
    7.0395   -6.5300   28.7416 C   0  0  0  0  0  0
    6.4473   -7.6546   29.6016 C   0  0  0  0  0  0
    5.9893   -7.1336   30.8478 O   0  0  0  0  0  0
    4.9772   -6.1548   30.6564 C   0  0  0  0  0  0
    5.5722   -4.9642   29.8904 C   0  0  0  0  0  0
    7.5579   -4.5524   26.7689 C   0  0  0  0  0  0
    7.8020   -3.6286   25.7387 C   0  0  0  0  0  0
    7.4345    0.8781   25.0171 H   0  0  0  0  0  0
   11.1496    0.3784   24.2803 H   0  0  0  0  0  0
   11.0848    5.1778   23.0935 H   0  0  0  0  0  0
    8.9878    6.5101   23.2255 H   0  0  0  0  0  0
    6.8657    5.4465   23.9593 H   0  0  0  0  0  0
    6.8247    3.0415   24.5858 H   0  0  0  0  0  0
    7.3413   -2.3934   23.5180 H   0  0  0  0  0  0
    4.9911   -1.3635   24.1088 H   0  0  0  0  0  0
    5.8251    0.0828   24.4429 H   0  0  0  0  0  0
    7.0901   -1.9137   21.5147 H   0  0  0  0  0  0
    6.6533   -1.3084   19.1959 H   0  0  0  0  0  0
    4.9414    0.4157   18.6452 H   0  0  0  0  0  0
    4.2106    1.0267   22.8411 H   0  0  0  0  0  0
    5.1606   -1.5339   26.2917 H   0  0  0  0  0  0
    4.6908   -3.1717   28.0046 H   0  0  0  0  0  0
    7.2588   -6.9526   27.7708 H   0  0  0  0  0  0
    7.9749   -6.1640   29.1499 H   0  0  0  0  0  0
    5.6380   -8.1573   29.0650 H   0  0  0  0  0  0
    7.2121   -8.4113   29.7875 H   0  0  0  0  0  0
    4.1230   -6.5813   30.1288 H   0  0  0  0  0  0
    4.6172   -5.8284   31.6309 H   0  0  0  0  0  0
    6.3750   -4.5627   30.5041 H   0  0  0  0  0  0
    4.8138   -4.1899   29.7906 H   0  0  0  0  0  0
    8.2654   -5.3619   26.8624 H   0  0  0  0  0  0
    8.6503   -3.7877   25.0865 H   0  0  0  0  0  0
  1  2  2  0  0  0
  2  3  1  0  0  0
  2 13  1  0  0  0
  3  4  1  0  0  0
  3 34  1  0  0  0
  4  5  1  0  0  0
  4 12  1  0  0  0
  5  6  2  0  0  0
  5 35  1  0  0  0
  6  7  1  0  0  0
  7  8  2  0  0  0
  7 12  1  0  0  0
  8  9  1  0  0  0
  8 36  1  0  0  0
  9 10  2  0  0  0
  9 37  1  0  0  0
 10 11  1  0  0  0
 10 38  1  0  0  0
 11 12  2  0  0  0
 11 39  1  0  0  0
 13 14  1  0  0  0
 13 22  1  0  0  0
 13 40  1  0  0  0
 14 15  1  0  0  0
 14 41  1  0  0  0
 14 42  1  0  0  0
 15 16  2  0  0  0
 15 21  1  0  0  0
 16 17  1  0  0  0
 16 43  1  0  0  0
 17 18  2  0  0  0
 17 44  1  0  0  0
 18 19  1  0  0  0
 18 45  1  0  0  0
 19 20  1  0  0  0
 19 21  2  0  0  0
 21 46  1  0  0  0
 22 23  2  0  0  0
 22 33  1  0  0  0
 23 24  1  0  0  0
 23 47  1  0  0  0
 24 25  2  0  0  0
 24 48  1  0  0  0
 25 26  1  0  0  0
 25 32  1  0  0  0
 26 27  1  0  0  0
 26 31  1  0  0  0
 27 28  1  0  0  0
 27 49  1  0  0  0
 27 50  1  0  0  0
 28 29  1  0  0  0
 28 51  1  0  0  0
 28 52  1  0  0  0
 29 30  1  0  0  0
 30 31  1  0  0  0
 30 53  1  0  0  0
 30 54  1  0  0  0
 31 55  1  0  0  0
 31 56  1  0  0  0
 32 33  2  0  0  0
 32 57  1  0  0  0
 33 58  1  0  0  0
M  END
> <s_m_entry_id>
3088

> <s_m_entry_name>
Compounds-withfrags-for-validation-docking.1841

> <s_m_Source_Path>
/home/rodolpho/data/melina/maestro/glide-dock_XP_5RGK_M-PRO_VALIDATION

> <s_m_Source_File>
glide-dock_XP_5RGK_M-PRO_VALIDATION_pv.maegz

> <i_m_Source_File_Index>
3088

> <CID>
ALP-POS-a3de0cb1-12

> <Potency>
99.5

> <pIC50>
4.00218

> <Source>
Postera

> <smiles>
O=C(Nn1cnc2ccccc21)C(Cc1cccc(Cl)c1)c1ccc(N2CCOCC2)cc1

> <Outcome>
Inactive

> <StandardizerResult>
Clear Stereo (ID: ClearStereo)
Wedge Clean (ID: WedgeClean)
Mesomerize (ID: Mesomerize)
Tautomerize (ID: Tautomerize)
Aromatize (ID: Aromatize)
Add Explicit Hydrogens (ID: AddExplicitH)
Neutralize (ID: Neutralize)
Clean 2D (ID: Clean2D)

> <chiral flag>
0

> <version>
0

> <i_lp_mmshare_version>
41011

> <i_f3d_flags>
0

> <s_epik_input>
W2NIXTFbY0hdW2NIXVtjSF1jKGMxMiluKFtjSF1uMilbTkhdQyg9TylbQ0BIXShbQ0gyXWMzW2NIXVtjSF1bY0hdYyhDbClbY0hdMyljNFtjSF1bY0hdYyhbY0hdW2NIXTQpTjVbQ0gyXVtDSDJdT1tDSDJdW0NIMl01

> <s_epik_cmdline>
J2VwaWtfcHl0aG9uJywgJy1waHQnLCAnMC41JywgJy1waCcsICc3LjQnLCAnLXRuJywgJzgnLCAnLW1hJywgJzIwMCcsICctaW1hZScsICc8aW5maWxlLm1hZT4nLCAnLW9tYWUnLCAnPG91dGZpbGUubWFlPic=

> <r_epik_Ionization_Penalty>
0.0115

> <r_epik_Ionization_Penalty_Charging>
0.0

> <r_epik_Ionization_Penalty_Neutral>
0.0115

> <r_epik_State_Penalty>
0.0088

> <r_epik_Charging_Adjusted_Penalty>
0.00881412

> <i_epik_Tot_Q>
0

> <i_epik_Tot_abs_Q>
0

> <s_lp_Force_Field>
OPLS3

> <r_lp_Energy>
36.2778

> <b_lp_Chiralities_Consistent>
1

> <s_lp_Variant>
ligprep_COVID_compounds-withfrags-smallmolecules-forvalidation.maegz:76-1

> <i_glide_original_lignum>
252

> <s_i_glide_gridfile>
glide-grid_5RGK_M-PRO_COVID

> <i_i_glide_lignum>
252

> <r_i_docking_score>
-3.10140205064223

> <r_i_glide_ligand_efficiency>
-0.0939818803224918

> <r_i_glide_ligand_efficiency_sa>
-0.301450107180611

> <r_i_glide_ligand_efficiency_ln>
-0.68973575786243

> <r_glide_XP_GScore>
-3.11021617064223

> <r_i_glide_gscore>
-3.11021617064223

> <r_i_glide_evdw>
-37.4905319213867

> <r_i_glide_ecoul>
-9.77177906036377

> <r_i_glide_energy>
-47.2623109817505

> <r_i_glide_einternal>
9.8837194442749

> <r_i_glide_emodel>
-57.2993965600793

> <r_glide_XP_HBond>
-0.423919231752175

> <i_i_glide_confnum>
5

> <i_i_glide_posenum>
34

> <r_i_glide_eff_state_penalty>
0.00881412

> <i_glide_XP_PoseRank>
1

> <MW>
460.17

> <cLogP>
4.62

> <TPSA>
59.39

> <Rotatable Bonds>
6

> <Fraction sp3>
0.23

> <HBA>
5

> <HBD>
1

> <r_lp_tautomer_probability>


> <s_epik_Chemistry_Notes>


> <Structure ID>


> <Submission Fragments>


$$$$
ligprep_COVID_compounds-withfrags-smallmolecules-forvalidation.maegz:26
                    3D
 Structure written by MMmdl.
 70 73  0  0  1  0            999 V2000
    3.3425   -7.0138   24.2472 C   0  0  0  0  0  0
    4.1311   -5.8985   24.6346 O   0  0  0  0  0  0
    4.9443   -5.9688   25.7199 C   0  0  0  0  0  0
    5.0706   -6.9664   26.4350 O   0  0  0  0  0  0
    5.7660   -4.6602   25.9590 C   0  0  2  0  0  0
    5.3363   -4.2108   27.3920 C   0  0  0  0  0  0
    5.3210   -3.5022   24.9833 C   0  0  0  0  0  0
    5.7118   -2.1028   25.3017 N   0  0  0  0  0  0
    6.1360   -1.8348   26.5738 C   0  0  0  0  0  0
    7.3059   -1.9452   26.9456 O   0  0  0  0  0  0
    5.1380   -1.4070   27.5227 C   0  0  0  0  0  0
    3.8084   -1.7808   27.7023 C   0  0  0  0  0  0
    3.3614   -1.1545   28.8658 C   0  0  0  0  0  0
    4.4513   -0.4760   29.3828 C   0  0  0  0  0  0
    5.5371   -0.6593   28.5881 O   0  0  0  0  0  0
    6.1788   -1.2551   24.1525 C   0  0  1  0  0  0
    5.1952   -0.1386   23.6883 C   0  0  0  0  0  0
    4.0592   -0.1169   24.1642 O   0  0  0  0  0  0
    5.6322    0.7675   22.7940 N   0  0  0  0  0  0
    4.8107    1.8240   22.2111 C   0  0  0  0  0  0
    3.3378    1.4104   22.0245 C   0  0  0  0  0  0
    2.4931    2.5172   21.4122 C   0  0  0  0  0  0
    2.3160    2.5833   20.0260 C   0  0  0  0  0  0
    1.5435    3.6005   19.4641 C   0  0  0  0  0  0
    0.9444    4.5562   20.2850 C   0  0  0  0  0  0
    1.1190    4.4961   21.6679 C   0  0  0  0  0  0
    0.5394    5.4236   22.4631 F   0  0  0  0  0  0
    1.8921    3.4797   22.2305 C   0  0  0  0  0  0
    7.6108   -0.7757   24.3343 C   0  0  0  0  0  0
    7.9554    0.5769   24.5023 C   0  0  0  0  0  0
    9.2942    0.9477   24.6358 C   0  0  0  0  0  0
   10.2678   -0.0487   24.5807 C   0  0  0  0  0  0
    9.9704   -1.3593   24.3986 N   0  0  0  0  0  0
    8.6621   -1.7003   24.2771 C   0  0  0  0  0  0
    7.3070   -4.9430   25.8728 C   0  0  0  0  0  0
    8.1321   -4.6774   26.9821 C   0  0  0  0  0  0
    9.5079   -4.8955   26.9394 C   0  0  0  0  0  0
   10.1033   -5.3653   25.7747 C   0  0  0  0  0  0
    9.3192   -5.6158   24.6541 C   0  0  0  0  0  0
    7.9409   -5.4048   24.6948 C   0  0  0  0  0  0
    7.2399   -5.6488   23.5640 F   0  0  0  0  0  0
    2.7719   -6.7685   23.3516 H   0  0  0  0  0  0
    2.6380   -7.2858   25.0344 H   0  0  0  0  0  0
    3.9686   -7.8787   24.0235 H   0  0  0  0  0  0
    5.6910   -4.8973   28.1632 H   0  0  0  0  0  0
    4.2510   -4.1401   27.4961 H   0  0  0  0  0  0
    5.7172   -3.2215   27.6480 H   0  0  0  0  0  0
    5.5820   -3.7245   23.9472 H   0  0  0  0  0  0
    4.2366   -3.5235   24.9414 H   0  0  0  0  0  0
    3.2315   -2.4350   27.0666 H   0  0  0  0  0  0
    2.3713   -1.2115   29.2931 H   0  0  0  0  0  0
    4.6019    0.1276   30.2657 H   0  0  0  0  0  0
    6.2132   -1.8953   23.2723 H   0  0  0  0  0  0
    6.5894    0.7140   22.4757 H   0  0  0  0  0  0
    4.8791    2.7335   22.8118 H   0  0  0  0  0  0
    5.2425    2.0738   21.2412 H   0  0  0  0  0  0
    3.2744    0.5236   21.3917 H   0  0  0  0  0  0
    2.9016    1.1184   22.9814 H   0  0  0  0  0  0
    2.7774    1.8483   19.3824 H   0  0  0  0  0  0
    1.4092    3.6485   18.3935 H   0  0  0  0  0  0
    0.3461    5.3429   19.8495 H   0  0  0  0  0  0
    2.0242    3.4419   23.3022 H   0  0  0  0  0  0
    7.1940    1.3427   24.5247 H   0  0  0  0  0  0
    9.5695    1.9831   24.7709 H   0  0  0  0  0  0
   11.3148    0.1987   24.6768 H   0  0  0  0  0  0
    8.4687   -2.7510   24.1237 H   0  0  0  0  0  0
    7.7282   -4.2891   27.9031 H   0  0  0  0  0  0
   10.1143   -4.6854   27.8080 H   0  0  0  0  0  0
   11.1704   -5.5272   25.7384 H   0  0  0  0  0  0
    9.7814   -5.9700   23.7446 H   0  0  0  0  0  0
  1  2  1  0  0  0
  1 42  1  0  0  0
  1 43  1  0  0  0
  1 44  1  0  0  0
  2  3  1  0  0  0
  3  4  2  0  0  0
  3  5  1  0  0  0
  5  6  1  0  0  0
  5  7  1  0  0  0
  5 35  1  0  0  0
  6 45  1  0  0  0
  6 46  1  0  0  0
  6 47  1  0  0  0
  7  8  1  0  0  0
  7 48  1  0  0  0
  7 49  1  0  0  0
  8  9  1  0  0  0
  8 16  1  0  0  0
  9 10  2  0  0  0
  9 11  1  0  0  0
 11 12  2  0  0  0
 11 15  1  0  0  0
 12 13  1  0  0  0
 12 50  1  0  0  0
 13 14  2  0  0  0
 13 51  1  0  0  0
 14 15  1  0  0  0
 14 52  1  0  0  0
 16 17  1  0  0  0
 16 29  1  0  0  0
 16 53  1  0  0  0
 17 18  2  0  0  0
 17 19  1  0  0  0
 19 20  1  0  0  0
 19 54  1  0  0  0
 20 21  1  0  0  0
 20 55  1  0  0  0
 20 56  1  0  0  0
 21 22  1  0  0  0
 21 57  1  0  0  0
 21 58  1  0  0  0
 22 23  2  0  0  0
 22 28  1  0  0  0
 23 24  1  0  0  0
 23 59  1  0  0  0
 24 25  2  0  0  0
 24 60  1  0  0  0
 25 26  1  0  0  0
 25 61  1  0  0  0
 26 27  1  0  0  0
 26 28  2  0  0  0
 28 62  1  0  0  0
 29 30  2  0  0  0
 29 34  1  0  0  0
 30 31  1  0  0  0
 30 63  1  0  0  0
 31 32  2  0  0  0
 31 64  1  0  0  0
 32 33  1  0  0  0
 32 65  1  0  0  0
 33 34  2  0  0  0
 34 66  1  0  0  0
 35 36  2  0  0  0
 35 40  1  0  0  0
 36 37  1  0  0  0
 36 67  1  0  0  0
 37 38  2  0  0  0
 37 68  1  0  0  0
 38 39  1  0  0  0
 38 69  1  0  0  0
 39 40  2  0  0  0
 39 70  1  0  0  0
 40 41  1  0  0  0
M  END
> <s_m_entry_id>
3105

> <s_m_entry_name>
Compounds-withfrags-for-validation-docking.1891

> <s_m_Source_Path>
/home/rodolpho/data/melina/maestro/glide-dock_XP_5RGK_M-PRO_VALIDATION

> <s_m_Source_File>
glide-dock_XP_5RGK_M-PRO_VALIDATION_pv.maegz

> <i_m_Source_File_Index>
3105

> <CID>
ALP-POS-b0bc6a46-29

> <Potency>
99.5

> <pIC50>
4.00218

> <Source>
Postera

> <smiles>
COC(=O)C(C)(CN(C(=O)c1ccco1)C(C(=O)NCCc1cccc(F)c1)c1cccnc1)c1ccccc1F

> <Outcome>
Inactive

> <StandardizerResult>
Clear Stereo (ID: ClearStereo)
Wedge Clean (ID: WedgeClean)
Mesomerize (ID: Mesomerize)
Tautomerize (ID: Tautomerize)
Aromatize (ID: Aromatize)
Add Explicit Hydrogens (ID: AddExplicitH)
Neutralize (ID: Neutralize)
Clean 2D (ID: Clean2D)

> <chiral flag>
0

> <version>
0

> <i_lp_mmshare_version>
41011

> <i_f3d_flags>
0

> <s_epik_input>
RmMxW2NIXVtjSF1bY0hdW2NIXWMxW0NAXShbQ0gzXSkoQyg9TylPW0NIM10pW0NIMl1OKEMoPU8pYzJbY0hdW2NIXVtjSF1vMilbQ0BIXShjM1tjSF1bY0hdW2NIXW5bY0hdMylDKD1PKVtOSF1bQ0gyXVtDSDJdYzRbY0hdW2NIXVtjSF1jKEYpW2NIXTQ=

> <s_epik_cmdline>
J2VwaWtfcHl0aG9uJywgJy1waHQnLCAnMC41JywgJy1waCcsICc3LjQnLCAnLXRuJywgJzgnLCAnLW1hJywgJzIwMCcsICctaW1hZScsICc8aW5maWxlLm1hZT4nLCAnLW9tYWUnLCAnPG91dGZpbGUubWFlPic=

> <r_lp_tautomer_probability>
1.0

> <r_epik_Ionization_Penalty>
7.0E-4

> <r_epik_Ionization_Penalty_Charging>
0.0

> <r_epik_Ionization_Penalty_Neutral>
7.0E-4

> <r_epik_State_Penalty>
0.0

> <r_epik_Charging_Adjusted_Penalty>
0.0

> <i_epik_Tot_Q>
0

> <i_epik_Tot_abs_Q>
0

> <s_lp_Force_Field>
OPLS3

> <r_lp_Energy>
72.3214

> <b_lp_Chiralities_Consistent>
1

> <s_lp_Variant>
ligprep_COVID_compounds-withfrags-smallmolecules-forvalidation.maegz:26-2

> <i_glide_original_lignum>
146

> <s_i_glide_gridfile>
glide-grid_5RGK_M-PRO_COVID

> <i_i_glide_lignum>
146

> <r_i_docking_score>
-3.08415426607111

> <r_i_glide_ligand_efficiency>
-0.0752232747822222

> <r_i_glide_ligand_efficiency_sa>
-0.259386192661023

> <r_i_glide_ligand_efficiency_ln>
-0.654313591141829

> <r_glide_XP_GScore>
-3.08415426607111

> <r_i_glide_gscore>
-3.08415426607111

> <r_i_glide_evdw>
-26.2770977020264

> <r_i_glide_ecoul>
-6.54610681533813

> <r_i_glide_energy>
-32.8232045173645

> <r_i_glide_einternal>
15.438910484314

> <r_i_glide_emodel>
-39.1783745252786

> <r_glide_XP_HBond>
-0.266938376879041

> <i_i_glide_confnum>
2

> <i_i_glide_posenum>
1

> <r_i_glide_eff_state_penalty>
0.0

> <i_glide_XP_PoseRank>
1

> <s_epik_Chemistry_Notes>
This compound has an ester and may undergo hydrolysis at high or low pH.

> <MW>
561.21

> <cLogP>
4.63

> <TPSA>
101.74

> <Rotatable Bonds>
11

> <Fraction sp3>
0.23

> <HBA>
6

> <HBD>
1

> <Structure ID>


> <Submission Fragments>


$$$$
ligprep_COVID_compounds-withfrags-smallmolecules-forvalidation.maegz:65
                    3D
 Structure written by MMmdl.
 43 46  0  0  1  0            999 V2000
   -2.7861    4.9901   16.0369 C   0  0  0  0  0  0
   -1.7835    5.9700   16.2519 O   0  0  0  0  0  0
   -0.6182    5.4750   16.7793 C   0  0  0  0  0  0
    0.5307    5.4652   15.9682 C   0  0  0  0  0  0
    1.7534    5.0061   16.4834 C   0  0  0  0  0  0
    3.1678    5.0388   15.4953 Cl  0  0  0  0  0  0
    1.8228    4.5276   17.8049 C   0  0  0  0  0  0
    0.6792    4.5217   18.6387 C   0  0  0  0  0  0
   -0.5403    5.0465   18.1263 C   0  0  0  0  0  0
   -1.6642    5.1828   18.9100 O   0  0  0  0  0  0
   -1.4388    5.2841   20.3073 C   0  0  0  0  0  0
   -0.6313    4.0792   20.7804 C   0  0  0  0  0  0
    0.7532    4.0446   20.0994 C   0  0  1  0  0  0
    1.4366    2.6716   20.3152 C   0  0  0  0  0  0
    0.7745    1.6611   20.5690 O   0  0  0  0  0  0
    2.7751    2.6412   20.2417 N   0  0  0  0  0  0
    3.6198    1.6734   20.8366 C   0  0  0  0  0  0
    3.5480    1.4371   22.2252 C   0  0  0  0  0  0
    4.3776    0.6042   22.8852 N   0  0  0  0  0  0
    5.3276   -0.0354   22.1698 C   0  0  0  0  0  0
    5.5069    0.1441   20.7833 C   0  0  0  0  0  0
    6.5170   -0.5450   20.0820 C   0  0  0  0  0  0
    6.6867   -0.3248   18.7023 C   0  0  0  0  0  0
    5.8487    0.5813   18.0253 C   0  0  0  0  0  0
    4.8309    1.2585   18.7198 C   0  0  0  0  0  0
    4.6474    1.0391   20.1024 C   0  0  0  0  0  0
   -3.6701    5.4652   15.6116 H   0  0  0  0  0  0
   -3.0884    4.4903   16.9567 H   0  0  0  0  0  0
   -2.4401    4.2363   15.3295 H   0  0  0  0  0  0
    0.4745    5.8251   14.9516 H   0  0  0  0  0  0
    2.7746    4.1823   18.1706 H   0  0  0  0  0  0
   -0.9226    6.2178   20.5366 H   0  0  0  0  0  0
   -2.4023    5.3169   20.8158 H   0  0  0  0  0  0
   -0.5210    4.0869   21.8656 H   0  0  0  0  0  0
   -1.2113    3.1891   20.5305 H   0  0  0  0  0  0
    1.3743    4.7842   20.6074 H   0  0  0  0  0  0
    3.2708    3.4558   19.8751 H   0  0  0  0  0  0
    2.8108    1.9425   22.8315 H   0  0  0  0  0  0
    5.9653   -0.7081   22.7249 H   0  0  0  0  0  0
    7.1705   -1.2362   20.5963 H   0  0  0  0  0  0
    7.4611   -0.8578   18.1698 H   0  0  0  0  0  0
    5.9723    0.7556   16.9689 H   0  0  0  0  0  0
    4.1948    1.9460   18.1807 H   0  0  0  0  0  0
  1  2  1  0  0  0
  1 27  1  0  0  0
  1 28  1  0  0  0
  1 29  1  0  0  0
  2  3  1  0  0  0
  3  4  2  0  0  0
  3  9  1  0  0  0
  4  5  1  0  0  0
  4 30  1  0  0  0
  5  6  1  0  0  0
  5  7  2  0  0  0
  7  8  1  0  0  0
  7 31  1  0  0  0
  8  9  2  0  0  0
  8 13  1  0  0  0
  9 10  1  0  0  0
 10 11  1  0  0  0
 11 12  1  0  0  0
 11 32  1  0  0  0
 11 33  1  0  0  0
 12 13  1  0  0  0
 12 34  1  0  0  0
 12 35  1  0  0  0
 13 14  1  0  0  0
 13 36  1  0  0  0
 14 15  2  0  0  0
 14 16  1  0  0  0
 16 17  1  0  0  0
 16 37  1  0  0  0
 17 18  2  0  0  0
 17 26  1  0  0  0
 18 19  1  0  0  0
 18 38  1  0  0  0
 19 20  2  0  0  0
 20 21  1  0  0  0
 20 39  1  0  0  0
 21 22  2  0  0  0
 21 26  1  0  0  0
 22 23  1  0  0  0
 22 40  1  0  0  0
 23 24  2  0  0  0
 23 41  1  0  0  0
 24 25  1  0  0  0
 24 42  1  0  0  0
 25 26  2  0  0  0
 25 43  1  0  0  0
M  END
> <s_m_entry_id>
3125

> <s_m_entry_name>
Compounds-withfrags-for-validation-docking.1852

> <s_m_Source_Path>
/home/rodolpho/data/melina/maestro/glide-dock_XP_5RGK_M-PRO_VALIDATION

> <s_m_Source_File>
glide-dock_XP_5RGK_M-PRO_VALIDATION_pv.maegz

> <i_m_Source_File_Index>
3125

> <CID>
EDJ-MED-e4b030d8-7

> <Potency>
99.5

> <pIC50>
4.00218

> <Source>
Postera

> <smiles>
COc1cc(Cl)cc2c1OCC[C@H]2C(=O)Nc1cncc2ccccc12

> <Outcome>
Inactive

> <StandardizerResult>
Clear Stereo (ID: ClearStereo)
Wedge Clean (ID: WedgeClean)
Mesomerize (ID: Mesomerize)
Tautomerize (ID: Tautomerize)
Aromatize (ID: Aromatize)
Add Explicit Hydrogens (ID: AddExplicitH)
Neutralize (ID: Neutralize)
Clean 2D (ID: Clean2D)

> <chiral flag>
0

> <version>
0

> <i_lp_mmshare_version>
41011

> <i_f3d_flags>
0

> <s_epik_input>
Q2xjKFtjSF0xKVtjSF1jKE9bQ0gzXSljKGMxMilPW0NIMl1bQ0gyXVtDQEhdMkMoPU8pW05IXWMoW2NIXW5bY0hdMyljKGMzNClbY0hdW2NIXVtjSF1bY0hdNA==

> <s_epik_cmdline>
J2VwaWtfcHl0aG9uJywgJy1waHQnLCAnMC41JywgJy1waCcsICc3LjQnLCAnLXRuJywgJzgnLCAnLW1hJywgJzIwMCcsICctaW1hZScsICc8aW5maWxlLm1hZT4nLCAnLW9tYWUnLCAnPG91dGZpbGUubWFlPic=

> <r_lp_tautomer_probability>
1.0

> <r_epik_Ionization_Penalty>
0.0029

> <r_epik_Ionization_Penalty_Charging>
0.0

> <r_epik_Ionization_Penalty_Neutral>
0.0029

> <r_epik_State_Penalty>
0.0

> <r_epik_Charging_Adjusted_Penalty>
0.0

> <i_epik_Tot_Q>
0

> <i_epik_Tot_abs_Q>
0

> <s_lp_Force_Field>
OPLS3

> <r_lp_Energy>
55.3268

> <b_lp_Chiralities_Consistent>
1

> <s_lp_Variant>
ligprep_COVID_compounds-withfrags-smallmolecules-forvalidation.maegz:65-1

> <i_glide_original_lignum>
238

> <s_i_glide_gridfile>
glide-grid_5RGK_M-PRO_COVID

> <i_i_glide_lignum>
238

> <r_i_docking_score>
-3.05652430236266

> <r_i_glide_ligand_efficiency>
-0.117558627013949

> <r_i_glide_ligand_efficiency_sa>
-0.348266969957962

> <r_i_glide_ligand_efficiency_ln>
-0.717814703135611

> <r_glide_XP_GScore>
-3.05652430236266

> <r_i_glide_gscore>
-3.05652430236266

> <r_i_glide_evdw>
-30.944673538208

> <r_i_glide_ecoul>
-8.59756755828857

> <r_i_glide_energy>
-39.5422410964966

> <r_i_glide_einternal>
2.56558990478516

> <r_i_glide_emodel>
-47.8183086763362

> <r_glide_XP_HBond>
-0.781513271533829

> <i_i_glide_confnum>
1

> <i_i_glide_posenum>
21

> <r_i_glide_eff_state_penalty>
0.0

> <i_glide_XP_PoseRank>
1

> <MW>
368.09

> <cLogP>
4.4

> <TPSA>
60.45

> <Rotatable Bonds>
3

> <Fraction sp3>
0.2

> <HBA>
4

> <HBD>
1

> <s_epik_Chemistry_Notes>


> <Structure ID>


> <Submission Fragments>


$$$$
ligprep_COVID_compounds-withfrags-smallmolecules-forvalidation.maegz:96
                    3D
 Structure written by MMmdl.
 50 53  0  0  1  0            999 V2000
    8.7625   -2.6055   25.7254 C   0  0  0  0  0  0
    8.0788   -1.4705   24.9906 C   0  0  0  0  0  0
    6.7869   -1.6465   24.4588 C   0  0  0  0  0  0
    6.1526   -0.5890   23.7819 C   0  0  0  0  0  0
    6.8060    0.6518   23.6068 C   0  0  0  0  0  0
    6.1905    1.7000   22.9056 N   0  0  0  0  0  0
    4.8620    1.7984   22.5148 C   0  0  0  0  0  0
    4.3016    1.5386   21.3266 C   0  0  0  0  0  0
    4.9363    0.8974   20.1703 C   0  0  0  0  0  0
    4.7614    1.4363   18.8831 C   0  0  0  0  0  0
    5.3226    0.7922   17.7708 C   0  0  0  0  0  0
    6.0141   -0.4199   17.9294 C   0  0  0  0  0  0
    6.2222   -0.9367   19.2167 C   0  0  0  0  0  0
    5.6929   -0.2781   20.3335 C   0  0  0  0  0  0
    2.8999    1.8885   21.4289 C   0  0  0  0  0  0
    2.0210    1.7872   20.5706 O   0  0  0  0  0  0
    2.7137    2.3292   22.6834 N   0  0  0  0  0  0
    1.4004    2.6822   23.2289 C   0  0  0  0  0  0
    0.6157    1.4556   23.6680 C   0  0  0  0  0  0
    0.9308    0.7865   24.8676 C   0  0  0  0  0  0
    0.1956   -0.3619   25.2148 C   0  0  0  0  0  0
   -0.8265   -0.7919   24.3473 C   0  0  0  0  0  0
   -1.1315   -0.1640   23.1932 N   0  0  0  0  0  0
   -0.4247    0.9387   22.8676 C   0  0  0  0  0  0
    3.8512    2.3255   23.3942 C   0  0  0  0  0  0
    3.9750    2.6617   24.5707 O   0  0  0  0  0  0
    8.0981    0.8355   24.1612 C   0  0  0  0  0  0
    8.8074    2.1778   24.0715 C   0  0  0  0  0  0
    8.7277   -0.2279   24.8452 C   0  0  0  0  0  0
    9.1723   -2.2543   26.6725 H   0  0  0  0  0  0
    9.5748   -3.0118   25.1223 H   0  0  0  0  0  0
    8.0647   -3.4149   25.9427 H   0  0  0  0  0  0
    6.2716   -2.5900   24.5679 H   0  0  0  0  0  0
    5.1574   -0.7499   23.3956 H   0  0  0  0  0  0
    6.7386    2.5403   22.7762 H   0  0  0  0  0  0
    4.1795    2.3334   18.7356 H   0  0  0  0  0  0
    5.1754    1.2183   16.7929 H   0  0  0  0  0  0
    6.3749   -0.9633   17.0702 H   0  0  0  0  0  0
    6.7747   -1.8463   19.3611 H   0  0  0  0  0  0
    5.8394   -0.7226   21.2992 H   0  0  0  0  0  0
    1.5049    3.3590   24.0790 H   0  0  0  0  0  0
    0.8280    3.2386   22.4844 H   0  0  0  0  0  0
    1.7250    1.1430   25.5074 H   0  0  0  0  0  0
    0.4093   -0.8999   26.1265 H   0  0  0  0  0  0
   -1.4095   -1.6699   24.5831 H   0  0  0  0  0  0
   -0.6880    1.4137   21.9339 H   0  0  0  0  0  0
    9.8753    2.0727   24.2623 H   0  0  0  0  0  0
    8.3964    2.8615   24.8146 H   0  0  0  0  0  0
    8.6890    2.6361   23.0893 H   0  0  0  0  0  0
    9.7104   -0.0885   25.2710 H   0  0  0  0  0  0
  1  2  1  0  0  0
  1 30  1  0  0  0
  1 31  1  0  0  0
  1 32  1  0  0  0
  2  3  2  0  0  0
  2 29  1  0  0  0
  3  4  1  0  0  0
  3 33  1  0  0  0
  4  5  2  0  0  0
  4 34  1  0  0  0
  5  6  1  0  0  0
  5 27  1  0  0  0
  6  7  1  0  0  0
  6 35  1  0  0  0
  7  8  2  0  0  0
  7 25  1  0  0  0
  8  9  1  0  0  0
  8 15  1  0  0  0
  9 10  2  0  0  0
  9 14  1  0  0  0
 10 11  1  0  0  0
 10 36  1  0  0  0
 11 12  2  0  0  0
 11 37  1  0  0  0
 12 13  1  0  0  0
 12 38  1  0  0  0
 13 14  2  0  0  0
 13 39  1  0  0  0
 14 40  1  0  0  0
 15 16  2  0  0  0
 15 17  1  0  0  0
 17 18  1  0  0  0
 17 25  1  0  0  0
 18 19  1  0  0  0
 18 41  1  0  0  0
 18 42  1  0  0  0
 19 20  2  0  0  0
 19 24  1  0  0  0
 20 21  1  0  0  0
 20 43  1  0  0  0
 21 22  2  0  0  0
 21 44  1  0  0  0
 22 23  1  0  0  0
 22 45  1  0  0  0
 23 24  2  0  0  0
 24 46  1  0  0  0
 25 26  2  0  0  0
 27 28  1  0  0  0
 27 29  2  0  0  0
 28 47  1  0  0  0
 28 48  1  0  0  0
 28 49  1  0  0  0
 29 50  1  0  0  0
M  END
> <s_m_entry_id>
3134

> <s_m_entry_name>
Compounds-withfrags-for-validation-docking.1821

> <s_m_Source_Path>
/home/rodolpho/data/melina/maestro/glide-dock_XP_5RGK_M-PRO_VALIDATION

> <s_m_Source_File>
glide-dock_XP_5RGK_M-PRO_VALIDATION_pv.maegz

> <i_m_Source_File_Index>
3134

> <CID>
JAG-UCB-1d922829-2

> <Potency>
99.5

> <pIC50>
4.00218

> <Source>
Postera

> <smiles>
Cc1ccc(NC2=C(c3ccccc3)C(=O)N(Cc3cccnc3)C2=O)c(C)c1

> <Outcome>
Inactive

> <StandardizerResult>
Clear Stereo (ID: ClearStereo)
Wedge Clean (ID: WedgeClean)
Mesomerize (ID: Mesomerize)
Tautomerize (ID: Tautomerize)
Aromatize (ID: Aromatize)
Add Explicit Hydrogens (ID: AddExplicitH)
Neutralize (ID: Neutralize)
Clean 2D (ID: Clean2D)

> <chiral flag>
0

> <version>
0

> <i_lp_mmshare_version>
41011

> <i_f3d_flags>
0

> <s_epik_input>
W0NIM11jMVtjSF1bY0hdYyhjKFtDSDNdKVtjSF0xKVtOSF1DMj1DKGMzW2NIXVtjSF1bY0hdW2NIXVtjSF0zKUMoPU8pTihDMj1PKVtDSDJdYzRbY0hdW2NIXVtjSF1uW2NIXTQ=

> <s_epik_cmdline>
J2VwaWtfcHl0aG9uJywgJy1waHQnLCAnMC41JywgJy1waCcsICc3LjQnLCAnLXRuJywgJzgnLCAnLW1hJywgJzIwMCcsICctaW1hZScsICc8aW5maWxlLm1hZT4nLCAnLW9tYWUnLCAnPG91dGZpbGUubWFlPic=

> <r_lp_tautomer_probability>
1.0

> <r_epik_Ionization_Penalty>
0.0011

> <r_epik_Ionization_Penalty_Charging>
0.0

> <r_epik_Ionization_Penalty_Neutral>
0.0011

> <r_epik_State_Penalty>
0.0

> <r_epik_Charging_Adjusted_Penalty>
0.0

> <i_epik_Tot_Q>
0

> <i_epik_Tot_abs_Q>
0

> <s_lp_Force_Field>
OPLS3

> <r_lp_Energy>
45.3166

> <b_lp_Chiralities_Consistent>
1

> <s_lp_Variant>
ligprep_COVID_compounds-withfrags-smallmolecules-forvalidation.maegz:96-1

> <i_glide_original_lignum>
285

> <s_i_glide_gridfile>
glide-grid_5RGK_M-PRO_COVID

> <i_i_glide_lignum>
285

> <r_i_docking_score>
-3.0505685806092

> <r_i_glide_ligand_efficiency>
-0.105192020021007

> <r_i_glide_ligand_efficiency_sa>
-0.323183212675671

> <r_i_glide_ligand_efficiency_ln>
-0.69850284921474

> <r_glide_XP_GScore>
-3.0505685806092

> <r_i_glide_gscore>
-3.0505685806092

> <r_i_glide_evdw>
-29.8764190673828

> <r_i_glide_ecoul>
-6.98799324035645

> <r_i_glide_energy>
-36.8644123077393

> <r_i_glide_einternal>
2.16222429275513

> <r_i_glide_emodel>
-48.2525920370364

> <r_glide_XP_HBond>
-0.79028946475008

> <i_i_glide_confnum>
1

> <i_i_glide_posenum>
5

> <r_i_glide_eff_state_penalty>
0.0

> <i_glide_XP_PoseRank>
1

> <MW>
383.16

> <cLogP>
4.09

> <TPSA>
62.3

> <Rotatable Bonds>
5

> <Fraction sp3>
0.12

> <HBA>
4

> <HBD>
1

> <s_epik_Chemistry_Notes>


> <Structure ID>


> <Submission Fragments>


$$$$
ligprep_COVID_compounds-withfrags-smallmolecules-forvalidation.maegz:29
                    3D
 Structure written by MMmdl.
 71 75  0  0  1  0            999 V2000
    3.6795    1.1459   23.9902 O   0  0  0  0  0  0
    4.1140    2.1173   23.3691 C   0  0  0  0  0  0
    5.3883    2.2364   22.9612 N   0  0  0  0  0  0
    6.4048    1.1946   23.1013 C   0  0  0  0  0  0
    6.0712   -0.1379   22.3886 C   0  0  0  0  0  0
    5.8207    0.0015   20.8909 C   0  0  0  0  0  0
    6.3783   -0.9168   19.9954 C   0  0  0  0  0  0
    6.1336   -0.8001   18.6263 C   0  0  0  0  0  0
    5.3308    0.2351   18.1461 C   0  0  0  0  0  0
    4.7735    1.1551   19.0344 C   0  0  0  0  0  0
    3.9922    2.1564   18.5701 F   0  0  0  0  0  0
    5.0190    1.0397   20.4029 C   0  0  0  0  0  0
    3.1927    3.3228   23.0457 C   0  0  2  0  0  0
    3.0829    4.2992   24.2035 C   0  0  0  0  0  0
    4.0858    5.2627   24.3800 C   0  0  0  0  0  0
    4.0130    6.1682   25.4389 C   0  0  0  0  0  0
    2.9242    6.0879   26.3061 C   0  0  0  0  0  0
    1.9376    5.1681   26.1650 N   0  0  0  0  0  0
    2.0278    4.2940   25.1301 C   0  0  0  0  0  0
    1.8696    3.0163   22.4051 N   0  0  0  0  0  0
    1.0710    1.9574   22.7774 C   0  0  0  0  0  0
    1.3400    1.1786   23.6922 O   0  0  0  0  0  0
   -0.1691    1.7427   22.0774 C   0  0  0  0  0  0
   -1.2539    2.5858   21.8721 C   0  0  0  0  0  0
   -2.1581    1.8896   21.0680 C   0  0  0  0  0  0
   -1.5691    0.6685   20.7852 C   0  0  0  0  0  0
   -0.3500    0.5884   21.3781 O   0  0  0  0  0  0
    1.6136    3.8150   21.1731 C   0  0  1  0  0  0
    1.6474    3.0476   19.8260 C   0  0  0  0  0  0
    1.5662    4.0088   18.6253 C   0  0  0  0  0  0
    0.3734    4.9904   18.7310 C   0  0  0  0  0  0
    0.2803    5.7318   20.0965 C   0  0  2  0  0  0
    1.2485    6.9144   20.3071 C   0  0  0  0  0  0
    1.3147    7.9164   19.3273 C   0  0  0  0  0  0
    2.1634    9.0127   19.4767 C   0  0  0  0  0  0
    2.9696    9.1202   20.6076 C   0  0  0  0  0  0
    3.7891   10.1862   20.7538 F   0  0  0  0  0  0
    2.9317    8.1252   21.5832 C   0  0  0  0  0  0
    3.7198    8.2191   22.6785 F   0  0  0  0  0  0
    2.0828    7.0282   21.4309 C   0  0  0  0  0  0
    0.3482    4.7000   21.2529 C   0  0  0  0  0  0
    5.6977    3.1194   22.5814 H   0  0  0  0  0  0
    7.3732    1.5705   22.7658 H   0  0  0  0  0  0
    6.5078    1.0056   24.1705 H   0  0  0  0  0  0
    6.8812   -0.8517   22.5481 H   0  0  0  0  0  0
    5.1976   -0.5949   22.8556 H   0  0  0  0  0  0
    6.9970   -1.7245   20.3594 H   0  0  0  0  0  0
    6.5637   -1.5131   17.9383 H   0  0  0  0  0  0
    5.1399    0.3237   17.0867 H   0  0  0  0  0  0
    4.5778    1.7534   21.0840 H   0  0  0  0  0  0
    3.7668    3.8487   22.2837 H   0  0  0  0  0  0
    4.9230    5.3101   23.6989 H   0  0  0  0  0  0
    4.7825    6.9120   25.5831 H   0  0  0  0  0  0
    2.8313    6.7705   27.1377 H   0  0  0  0  0  0
    1.2236    3.5787   25.0716 H   0  0  0  0  0  0
   -1.3787    3.5833   22.2671 H   0  0  0  0  0  0
   -3.1209    2.2382   20.7244 H   0  0  0  0  0  0
   -1.8750   -0.1880   20.2027 H   0  0  0  0  0  0
    2.4347    4.5143   21.0604 H   0  0  0  0  0  0
    2.5626    2.4576   19.7580 H   0  0  0  0  0  0
    0.8237    2.3372   19.7570 H   0  0  0  0  0  0
    2.5061    4.5544   18.5558 H   0  0  0  0  0  0
    1.4911    3.4367   17.6997 H   0  0  0  0  0  0
    0.3840    5.6991   17.9019 H   0  0  0  0  0  0
   -0.5437    4.4147   18.5959 H   0  0  0  0  0  0
   -0.7035    6.2033   20.1340 H   0  0  0  0  0  0
    0.7027    7.8522   18.4395 H   0  0  0  0  0  0
    2.1945    9.7787   18.7157 H   0  0  0  0  0  0
    2.0978    6.2738   22.2002 H   0  0  0  0  0  0
   -0.5382    4.0644   21.2220 H   0  0  0  0  0  0
    0.3009    5.1995   22.2210 H   0  0  0  0  0  0
  1  2  2  0  0  0
  2  3  1  0  0  0
  2 13  1  0  0  0
  3  4  1  0  0  0
  3 42  1  0  0  0
  4  5  1  0  0  0
  4 43  1  0  0  0
  4 44  1  0  0  0
  5  6  1  0  0  0
  5 45  1  0  0  0
  5 46  1  0  0  0
  6  7  2  0  0  0
  6 12  1  0  0  0
  7  8  1  0  0  0
  7 47  1  0  0  0
  8  9  2  0  0  0
  8 48  1  0  0  0
  9 10  1  0  0  0
  9 49  1  0  0  0
 10 11  1  0  0  0
 10 12  2  0  0  0
 12 50  1  0  0  0
 13 14  1  0  0  0
 13 20  1  0  0  0
 13 51  1  0  0  0
 14 15  2  0  0  0
 14 19  1  0  0  0
 15 16  1  0  0  0
 15 52  1  0  0  0
 16 17  2  0  0  0
 16 53  1  0  0  0
 17 18  1  0  0  0
 17 54  1  0  0  0
 18 19  2  0  0  0
 19 55  1  0  0  0
 20 21  1  0  0  0
 20 28  1  0  0  0
 21 22  2  0  0  0
 21 23  1  0  0  0
 23 24  2  0  0  0
 23 27  1  0  0  0
 24 25  1  0  0  0
 24 56  1  0  0  0
 25 26  2  0  0  0
 25 57  1  0  0  0
 26 27  1  0  0  0
 26 58  1  0  0  0
 28 29  1  0  0  0
 28 41  1  0  0  0
 28 59  1  0  0  0
 29 30  1  0  0  0
 29 60  1  0  0  0
 29 61  1  0  0  0
 30 31  1  0  0  0
 30 62  1  0  0  0
 30 63  1  0  0  0
 31 32  1  0  0  0
 31 64  1  0  0  0
 31 65  1  0  0  0
 32 33  1  0  0  0
 32 41  1  0  0  0
 32 66  1  0  0  0
 33 34  2  0  0  0
 33 40  1  0  0  0
 34 35  1  0  0  0
 34 67  1  0  0  0
 35 36  2  0  0  0
 35 68  1  0  0  0
 36 37  1  0  0  0
 36 38  1  0  0  0
 38 39  1  0  0  0
 38 40  2  0  0  0
 40 69  1  0  0  0
 41 70  1  0  0  0
 41 71  1  0  0  0
M  END
> <s_m_entry_id>
3154

> <s_m_entry_name>
Compounds-withfrags-for-validation-docking.1888

> <s_m_Source_Path>
/home/rodolpho/data/melina/maestro/glide-dock_XP_5RGK_M-PRO_VALIDATION

> <s_m_Source_File>
glide-dock_XP_5RGK_M-PRO_VALIDATION_pv.maegz

> <i_m_Source_File_Index>
3154

> <CID>
ALP-POS-b0bc6a46-26

> <Potency>
99.5

> <pIC50>
4.00218

> <Source>
Postera

> <smiles>
O=C(NCCc1cccc(F)c1)C(c1cccnc1)N(C(=O)c1ccco1)C1CCCC(c2ccc(F)c(F)c2)C1

> <Outcome>
Inactive

> <StandardizerResult>
Clear Stereo (ID: ClearStereo)
Wedge Clean (ID: WedgeClean)
Mesomerize (ID: Mesomerize)
Tautomerize (ID: Tautomerize)
Aromatize (ID: Aromatize)
Add Explicit Hydrogens (ID: AddExplicitH)
Neutralize (ID: Neutralize)
Clean 2D (ID: Clean2D)

> <chiral flag>
0

> <version>
0

> <i_lp_mmshare_version>
41011

> <i_f3d_flags>
0

> <s_epik_input>
RmMoW2NIXTEpW2NIXVtjSF1bY0hdYzFbQ0gyXVtDSDJdW05IXUMoPU8pW0NASF0oYzJbY0hdW2NIXVtjSF1uW2NIXTIpTihDKD1PKWMzW2NIXVtjSF1bY0hdbzMpW0NASF00W0NIMl1bQ0gyXVtDSDJdW0NAQEhdKFtDSDJdNCljNVtjSF1bY0hdYyhGKWMoRilbY0hdNQ==

> <s_epik_cmdline>
J2VwaWtfcHl0aG9uJywgJy1waHQnLCAnMC41JywgJy1waCcsICc3LjQnLCAnLXRuJywgJzgnLCAnLW1hJywgJzIwMCcsICctaW1hZScsICc8aW5maWxlLm1hZT4nLCAnLW9tYWUnLCAnPG91dGZpbGUubWFlPic=

> <r_lp_tautomer_probability>
1.0

> <r_epik_Ionization_Penalty>
8.0E-4

> <r_epik_Ionization_Penalty_Charging>
0.0

> <r_epik_Ionization_Penalty_Neutral>
8.0E-4

> <r_epik_State_Penalty>
0.0

> <r_epik_Charging_Adjusted_Penalty>
0.0

> <i_epik_Tot_Q>
0

> <i_epik_Tot_abs_Q>
0

> <s_lp_Force_Field>
OPLS3

> <r_lp_Energy>
67.1876

> <b_lp_Chiralities_Consistent>
1

> <s_lp_Variant>
ligprep_COVID_compounds-withfrags-smallmolecules-forvalidation.maegz:29-8

> <i_glide_original_lignum>
160

> <s_i_glide_gridfile>
glide-grid_5RGK_M-PRO_COVID

> <i_i_glide_lignum>
160

> <r_i_docking_score>
-3.03477784184756

> <r_i_glide_ligand_efficiency>
-0.0740189717523795

> <r_i_glide_ligand_efficiency_sa>
-0.255233494196015

> <r_i_glide_ligand_efficiency_ln>
-0.643838218425597

> <r_glide_XP_GScore>
-3.03477784184756

> <r_i_glide_gscore>
-3.03477784184756

> <r_i_glide_evdw>
-29.8672294616699

> <r_i_glide_ecoul>
-8.07253360748291

> <r_i_glide_energy>
-37.9397630691528

> <r_i_glide_einternal>
0.0

> <r_i_glide_emodel>
-53.9635578653013

> <r_glide_XP_HBond>
-1.03832043227847

> <i_i_glide_confnum>
3

> <i_i_glide_posenum>
56

> <r_i_glide_eff_state_penalty>
0.0

> <i_glide_XP_PoseRank>
1

> <MW>
561.22

> <cLogP>
6.36

> <TPSA>
75.44

> <Rotatable Bonds>
9

> <Fraction sp3>
0.28

> <HBA>
4

> <HBD>
1

> <s_epik_Chemistry_Notes>


> <Structure ID>


> <Submission Fragments>


$$$$
ligprep_COVID_compounds-withfrags-smallmolecules-forvalidation.maegz:85
                    3D
 Structure written by MMmdl.
 44 46  0  0  1  0            999 V2000
    5.1815   -0.0375   22.4324 C   0  0  0  0  0  0
    5.2573    0.1209   20.9263 C   0  0  0  0  0  0
    5.9749   -0.8107   20.1487 C   0  0  0  0  0  0
    6.0480   -0.6170   18.7562 C   0  0  0  0  0  0
    5.4882    0.4337   18.1232 N   0  0  0  0  0  0
    4.7830    1.3141   18.8660 C   0  0  0  0  0  0
    4.6299    1.2005   20.2650 C   0  0  0  0  0  0
    3.9751    2.2362   20.9706 N   0  0  0  0  0  0
    2.6504    2.3576   21.1254 C   0  0  0  0  0  0
    1.8496    1.4363   20.9708 O   0  0  0  0  0  0
    2.1506    3.7449   21.5374 C   0  0  0  0  0  0
    1.1828    4.3172   20.5086 C   0  0  0  0  0  0
   -0.0906    4.7698   20.9104 C   0  0  0  0  0  0
   -0.9803    5.3026   19.9598 C   0  0  0  0  0  0
   -2.5415    5.8495   20.4506 Cl  0  0  0  0  0  0
   -0.5977    5.3939   18.6077 C   0  0  0  0  0  0
    0.6741    4.9514   18.1853 C   0  0  0  0  0  0
    1.0550    5.0131   16.7648 C   0  0  0  0  0  0
    0.2000    4.7101   15.6706 C   0  0  0  0  0  0
    0.8334    4.7967   14.5164 N   0  0  0  0  0  0
    2.0875    5.1793   14.8446 N   0  0  0  0  0  0
    3.0478    5.3518   13.7816 C   0  0  0  0  0  0
    2.2659    5.3275   16.2105 C   0  0  0  0  0  0
    3.5748    5.7503   16.8077 C   0  0  0  0  0  0
    4.5492    4.8722   16.5706 F   0  0  0  0  0  0
    3.9652    6.9542   16.3895 F   0  0  0  0  0  0
    1.5522    4.4097   19.1474 C   0  0  0  0  0  0
    5.6663    0.8053   22.9263 H   0  0  0  0  0  0
    5.6746   -0.9556   22.7593 H   0  0  0  0  0  0
    4.1421   -0.0770   22.7588 H   0  0  0  0  0  0
    6.4697   -1.6585   20.6030 H   0  0  0  0  0  0
    6.5874   -1.3183   18.1358 H   0  0  0  0  0  0
    4.3576    2.1515   18.3323 H   0  0  0  0  0  0
    4.5106    3.1025   21.0692 H   0  0  0  0  0  0
    1.6694    3.6694   22.5139 H   0  0  0  0  0  0
    2.9901    4.4353   21.6486 H   0  0  0  0  0  0
   -0.3892    4.7085   21.9464 H   0  0  0  0  0  0
   -1.2915    5.8047   17.8883 H   0  0  0  0  0  0
   -0.8376    4.4104   15.6785 H   0  0  0  0  0  0
    3.7576    6.1407   14.0327 H   0  0  0  0  0  0
    2.5428    5.6220   12.8523 H   0  0  0  0  0  0
    3.5749    4.4083   13.6437 H   0  0  0  0  0  0
    3.5031    5.8362   17.8897 H   0  0  0  0  0  0
    2.5176    4.0380   18.8355 H   0  0  0  0  0  0
  1  2  1  0  0  0
  1 28  1  0  0  0
  1 29  1  0  0  0
  1 30  1  0  0  0
  2  3  2  0  0  0
  2  7  1  0  0  0
  3  4  1  0  0  0
  3 31  1  0  0  0
  4  5  2  0  0  0
  4 32  1  0  0  0
  5  6  1  0  0  0
  6  7  2  0  0  0
  6 33  1  0  0  0
  7  8  1  0  0  0
  8  9  1  0  0  0
  8 34  1  0  0  0
  9 10  2  0  0  0
  9 11  1  0  0  0
 11 12  1  0  0  0
 11 35  1  0  0  0
 11 36  1  0  0  0
 12 13  2  0  0  0
 12 27  1  0  0  0
 13 14  1  0  0  0
 13 37  1  0  0  0
 14 15  1  0  0  0
 14 16  2  0  0  0
 16 17  1  0  0  0
 16 38  1  0  0  0
 17 18  1  0  0  0
 17 27  2  0  0  0
 18 19  1  0  0  0
 18 23  2  0  0  0
 19 20  2  0  0  0
 19 39  1  0  0  0
 20 21  1  0  0  0
 21 22  1  0  0  0
 21 23  1  0  0  0
 22 40  1  0  0  0
 22 41  1  0  0  0
 22 42  1  0  0  0
 23 24  1  0  0  0
 24 25  1  0  0  0
 24 26  1  0  0  0
 24 43  1  0  0  0
 27 44  1  0  0  0
M  END
> <s_m_entry_id>
3173

> <s_m_entry_name>
Compounds-withfrags-for-validation-docking.1832

> <s_m_Source_Path>
/home/rodolpho/data/melina/maestro/glide-dock_XP_5RGK_M-PRO_VALIDATION

> <s_m_Source_File>
glide-dock_XP_5RGK_M-PRO_VALIDATION_pv.maegz

> <i_m_Source_File_Index>
3173

> <CID>
MAT-POS-f42f3716-7

> <Potency>
19.2679

> <pIC50>
4.71517

> <Source>
Postera

> <smiles>
Cc1ccncc1NC(=O)Cc1cc(Cl)cc(-c2cnn(C)c2C(F)F)c1

> <Outcome>
Inactive

> <StandardizerResult>
Clear Stereo (ID: ClearStereo)
Wedge Clean (ID: WedgeClean)
Mesomerize (ID: Mesomerize)
Tautomerize (ID: Tautomerize)
Aromatize (ID: Aromatize)
Add Explicit Hydrogens (ID: AddExplicitH)
Neutralize (ID: Neutralize)
Clean 2D (ID: Clean2D)

> <chiral flag>
0

> <version>
0

> <i_lp_mmshare_version>
41011

> <i_f3d_flags>
0

> <s_epik_input>
W0NIM11jMVtjSF1bY0hdbltjSF1jMVtOSF1DKD1PKVtDSDJdYzJbY0hdYyhDbClbY0hdYyhbY0hdMiktYzNbY0hdbm4oW0NIM10pYzNbQ0hdKEYpRg==

> <s_epik_cmdline>
J2VwaWtfcHl0aG9uJywgJy1waHQnLCAnMC41JywgJy1waCcsICc3LjQnLCAnLXRuJywgJzgnLCAnLW1hJywgJzIwMCcsICctaW1hZScsICc8aW5maWxlLm1hZT4nLCAnLW9tYWUnLCAnPG91dGZpbGUubWFlPic=

> <r_lp_tautomer_probability>
1.0

> <r_epik_Ionization_Penalty>
0.0032

> <r_epik_Ionization_Penalty_Charging>
0.0

> <r_epik_Ionization_Penalty_Neutral>
0.0032

> <r_epik_State_Penalty>
0.0

> <r_epik_Charging_Adjusted_Penalty>
0.0

> <i_epik_Tot_Q>
0

> <i_epik_Tot_abs_Q>
0

> <s_lp_Force_Field>
OPLS3

> <r_lp_Energy>
29.6187

> <b_lp_Chiralities_Consistent>
1

> <s_lp_Variant>
ligprep_COVID_compounds-withfrags-smallmolecules-forvalidation.maegz:85-1

> <i_glide_original_lignum>
266

> <s_i_glide_gridfile>
glide-grid_5RGK_M-PRO_COVID

> <i_i_glide_lignum>
266

> <r_i_docking_score>
-3.01165419335257

> <r_i_glide_ligand_efficiency>
-0.111542747901947

> <r_i_glide_ligand_efficiency_sa>
-0.334628243338214

> <r_i_glide_ligand_efficiency_ln>
-0.701063445212663

> <r_glide_XP_GScore>
-3.01165419335257

> <r_i_glide_gscore>
-3.01165419335257

> <r_i_glide_evdw>
-30.769718170166

> <r_i_glide_ecoul>
-11.4345369338989

> <r_i_glide_energy>
-42.2042551040649

> <r_i_glide_einternal>
0.999253511428833

> <r_i_glide_emodel>
-55.1649094689412

> <r_glide_XP_HBond>
-0.834280817232292

> <i_i_glide_confnum>
1

> <i_i_glide_posenum>
33

> <r_i_glide_eff_state_penalty>
0.0

> <i_glide_XP_PoseRank>
1

> <MW>
390.11

> <cLogP>
4.56

> <TPSA>
59.81

> <Rotatable Bonds>
5

> <Fraction sp3>
0.21

> <HBA>
4

> <HBD>
1

> <s_epik_Chemistry_Notes>


> <Structure ID>


> <Submission Fragments>


$$$$
ligprep_COVID_compounds-withfrags-smallmolecules-forvalidation.maegz:33
                    3D
 Structure written by MMmdl.
 59 62  0  0  1  0            999 V2000
   10.1790    1.3813   24.6508 C   0  0  0  0  0  0
    9.2218    0.3384   24.5395 O   0  0  0  0  0  0
    7.9588    0.6650   24.0910 C   0  0  0  0  0  0
    7.0180   -0.3789   23.9902 C   0  0  0  0  0  0
    5.7067   -0.1310   23.5382 C   0  0  0  0  0  0
    5.3068    1.1674   23.1369 C   0  0  0  0  0  0
    3.9966    1.4461   22.6030 N   0  0  0  0  0  0
    3.0075    1.7782   23.4905 C   0  0  0  0  0  0
    2.3244    2.7971   23.3723 O   0  0  0  0  0  0
    2.8063    1.0025   24.7370 C   0  0  0  0  0  0
    2.2681    1.3990   25.9332 C   0  0  0  0  0  0
    2.2546    0.2563   26.7798 C   0  0  0  0  0  0
    2.7713   -0.7630   26.0346 C   0  0  0  0  0  0
    3.0963   -0.3264   24.7881 O   0  0  0  0  0  0
    3.9139    1.8977   21.1622 C   0  0  2  0  0  0
    2.5087    2.2089   20.5694 C   0  0  0  0  0  0
    1.5639    1.4371   20.7445 O   0  0  0  0  0  0
    2.3749    3.3696   19.9117 N   0  0  0  0  0  0
    1.1002    3.9698   19.5465 C   0  0  0  0  0  0
    1.2675    5.3245   18.8308 C   0  0  0  0  0  0
    1.8153    5.2489   17.4122 C   0  0  0  0  0  0
    3.0681    5.8175   17.0954 C   0  0  0  0  0  0
    3.5461    5.7972   15.7708 C   0  0  0  0  0  0
    2.7724    5.2064   14.7528 C   0  0  0  0  0  0
    1.5235    4.6364   15.0622 C   0  0  0  0  0  0
    0.7807    4.0621   14.0869 F   0  0  0  0  0  0
    1.0448    4.6630   16.3859 C   0  0  0  0  0  0
    4.6450    1.0395   20.1311 C   0  0  0  0  0  0
    5.1750   -0.2408   20.3910 C   0  0  0  0  0  0
    5.8845   -0.9649   19.4211 C   0  0  0  0  0  0
    6.0453   -0.3907   18.1582 C   0  0  0  0  0  0
    5.5734    0.8284   17.8510 N   0  0  0  0  0  0
    4.8864    1.4944   18.8062 C   0  0  0  0  0  0
    6.2491    2.2120   23.2511 C   0  0  0  0  0  0
    7.5540    1.9723   23.7258 C   0  0  0  0  0  0
   11.1246    0.9666   24.9989 H   0  0  0  0  0  0
    9.8609    2.1368   25.3704 H   0  0  0  0  0  0
   10.3664    1.8589   23.6888 H   0  0  0  0  0  0
    7.3020   -1.3827   24.2683 H   0  0  0  0  0  0
    5.0215   -0.9610   23.4736 H   0  0  0  0  0  0
    1.9237    2.3962   26.1663 H   0  0  0  0  0  0
    1.9062    0.1880   27.7998 H   0  0  0  0  0  0
    2.9641   -1.8090   26.2207 H   0  0  0  0  0  0
    4.3751    2.8733   21.1890 H   0  0  0  0  0  0
    3.2385    3.9035   19.7435 H   0  0  0  0  0  0
    0.5033    3.2712   18.9643 H   0  0  0  0  0  0
    0.5461    4.1361   20.4717 H   0  0  0  0  0  0
    0.2959    5.8171   18.7784 H   0  0  0  0  0  0
    1.8998    5.9793   19.4321 H   0  0  0  0  0  0
    3.6706    6.2671   17.8719 H   0  0  0  0  0  0
    4.5047    6.2366   15.5358 H   0  0  0  0  0  0
    3.1353    5.1933   13.7355 H   0  0  0  0  0  0
    0.0776    4.2387   16.6075 H   0  0  0  0  0  0
    4.9862   -0.7401   21.3190 H   0  0  0  0  0  0
    6.2617   -1.9548   19.6329 H   0  0  0  0  0  0
    6.5572   -0.9240   17.3709 H   0  0  0  0  0  0
    4.5176    2.4535   18.4809 H   0  0  0  0  0  0
    5.9766    3.2160   22.9709 H   0  0  0  0  0  0
    8.2296    2.8115   23.7834 H   0  0  0  0  0  0
  1  2  1  0  0  0
  1 36  1  0  0  0
  1 37  1  0  0  0
  1 38  1  0  0  0
  2  3  1  0  0  0
  3  4  2  0  0  0
  3 35  1  0  0  0
  4  5  1  0  0  0
  4 39  1  0  0  0
  5  6  2  0  0  0
  5 40  1  0  0  0
  6  7  1  0  0  0
  6 34  1  0  0  0
  7  8  1  0  0  0
  7 15  1  0  0  0
  8  9  2  0  0  0
  8 10  1  0  0  0
 10 11  2  0  0  0
 10 14  1  0  0  0
 11 12  1  0  0  0
 11 41  1  0  0  0
 12 13  2  0  0  0
 12 42  1  0  0  0
 13 14  1  0  0  0
 13 43  1  0  0  0
 15 16  1  0  0  0
 15 28  1  0  0  0
 15 44  1  0  0  0
 16 17  2  0  0  0
 16 18  1  0  0  0
 18 19  1  0  0  0
 18 45  1  0  0  0
 19 20  1  0  0  0
 19 46  1  0  0  0
 19 47  1  0  0  0
 20 21  1  0  0  0
 20 48  1  0  0  0
 20 49  1  0  0  0
 21 22  2  0  0  0
 21 27  1  0  0  0
 22 23  1  0  0  0
 22 50  1  0  0  0
 23 24  2  0  0  0
 23 51  1  0  0  0
 24 25  1  0  0  0
 24 52  1  0  0  0
 25 26  1  0  0  0
 25 27  2  0  0  0
 27 53  1  0  0  0
 28 29  2  0  0  0
 28 33  1  0  0  0
 29 30  1  0  0  0
 29 54  1  0  0  0
 30 31  2  0  0  0
 30 55  1  0  0  0
 31 32  1  0  0  0
 31 56  1  0  0  0
 32 33  2  0  0  0
 33 57  1  0  0  0
 34 35  2  0  0  0
 34 58  1  0  0  0
 35 59  1  0  0  0
M  END
> <s_m_entry_id>
3188

> <s_m_entry_name>
Compounds-withfrags-for-validation-docking.1884

> <s_m_Source_Path>
/home/rodolpho/data/melina/maestro/glide-dock_XP_5RGK_M-PRO_VALIDATION

> <s_m_Source_File>
glide-dock_XP_5RGK_M-PRO_VALIDATION_pv.maegz

> <i_m_Source_File_Index>
3188

> <CID>
ALP-POS-b0bc6a46-22

> <Potency>
30.4977

> <pIC50>
4.51573

> <Source>
Postera

> <smiles>
COc1ccc(N(C(=O)c2ccco2)C(C(=O)NCCc2cccc(F)c2)c2cccnc2)cc1

> <Outcome>
Inactive

> <StandardizerResult>
Clear Stereo (ID: ClearStereo)
Wedge Clean (ID: WedgeClean)
Mesomerize (ID: Mesomerize)
Tautomerize (ID: Tautomerize)
Aromatize (ID: Aromatize)
Add Explicit Hydrogens (ID: AddExplicitH)
Neutralize (ID: Neutralize)
Clean 2D (ID: Clean2D)

> <chiral flag>
0

> <version>
0

> <i_lp_mmshare_version>
41011

> <i_f3d_flags>
0

> <s_epik_input>
W0NIM11PYzFbY0hdW2NIXWMoW2NIXVtjSF0xKU4oQyg9TyljMltjSF1bY0hdW2NIXW8yKVtDQEBIXShjM1tjSF1bY0hdW2NIXW5bY0hdMylDKD1PKVtOSF1bQ0gyXVtDSDJdYzRbY0hdW2NIXVtjSF1jKEYpW2NIXTQ=

> <s_epik_cmdline>
J2VwaWtfcHl0aG9uJywgJy1waHQnLCAnMC41JywgJy1waCcsICc3LjQnLCAnLXRuJywgJzgnLCAnLW1hJywgJzIwMCcsICctaW1hZScsICc8aW5maWxlLm1hZT4nLCAnLW9tYWUnLCAnPG91dGZpbGUubWFlPic=

> <r_lp_tautomer_probability>
1.0

> <r_epik_Ionization_Penalty>
6.0E-4

> <r_epik_Ionization_Penalty_Charging>
0.0

> <r_epik_Ionization_Penalty_Neutral>
6.0E-4

> <r_epik_State_Penalty>
0.0

> <r_epik_Charging_Adjusted_Penalty>
0.0

> <i_epik_Tot_Q>
0

> <i_epik_Tot_abs_Q>
0

> <s_lp_Force_Field>
OPLS3

> <r_lp_Energy>
72.9064

> <b_lp_Chiralities_Consistent>
1

> <s_lp_Variant>
ligprep_COVID_compounds-withfrags-smallmolecules-forvalidation.maegz:33-2

> <i_glide_original_lignum>
168

> <s_i_glide_gridfile>
glide-grid_5RGK_M-PRO_COVID

> <i_i_glide_lignum>
168

> <r_i_docking_score>
-2.99738591609274

> <r_i_glide_ligand_efficiency>
-0.0856395976026497

> <r_i_glide_ligand_efficiency_sa>
-0.280132802204145

> <r_i_glide_ligand_efficiency_ln>
-0.657992731978578

> <r_glide_XP_GScore>
-2.99738591609274

> <r_i_glide_gscore>
-2.99738591609274

> <r_i_glide_evdw>
-33.3357734680176

> <r_i_glide_ecoul>
-10.8692016601562

> <r_i_glide_energy>
-44.2049751281738

> <r_i_glide_einternal>
11.5112829208374

> <r_i_glide_emodel>
-60.2149658936357

> <r_glide_XP_HBond>
-0.7

> <i_i_glide_confnum>
1

> <i_i_glide_posenum>
2

> <r_i_glide_eff_state_penalty>
0.0

> <i_glide_XP_PoseRank>
1

> <MW>
473.18

> <cLogP>
4.57

> <TPSA>
84.67

> <Rotatable Bonds>
9

> <Fraction sp3>
0.15

> <HBA>
5

> <HBD>
1

> <s_epik_Chemistry_Notes>


> <Structure ID>


> <Submission Fragments>


$$$$
ligprep_COVID_compounds-withfrags-smallmolecules-forvalidation.maegz:6
                    3D
 Structure written by MMmdl.
 56 59  0  0  1  0            999 V2000
    1.7010    3.2863   19.4347 C   0  0  0  0  0  0
    2.3371    2.8328   20.7656 C   0  0  2  0  0  0
    3.5000    1.8333   20.6272 C   0  0  0  0  0  0
    4.0768    1.5126   19.3743 C   0  0  0  0  0  0
    5.1735    0.6387   19.2818 C   0  0  0  0  0  0
    5.7059    0.0617   20.4439 C   0  0  0  0  0  0
    5.1343    0.3417   21.6996 C   0  0  0  0  0  0
    5.6731   -0.2850   22.7880 O   0  0  0  0  0  0
    4.0193    1.2223   21.8018 C   0  0  0  0  0  0
    3.3455    1.4894   23.1148 C   0  0  0  0  0  0
    3.9752    1.4977   24.1703 O   0  0  0  0  0  0
    1.8799    1.7810   23.0743 C   0  0  0  0  0  0
    1.2976    2.1735   21.7144 C   0  0  1  0  0  0
   -0.1025    2.8282   21.8122 C   0  0  1  0  0  0
   -1.0157    2.0150   22.7843 C   0  0  2  0  0  0
   -2.5399    2.3607   22.8182 C   0  0  2  0  0  0
   -3.1987    2.4184   21.4885 N   0  0  0  0  0  0
   -3.1355    3.6820   20.7541 C   0  0  0  0  0  0
   -2.9795    1.2618   20.6281 C   0  0  0  0  0  0
   -2.9556    3.4544   23.8588 C   0  0  0  0  0  0
   -4.1666    3.7285   23.6659 O   0  5  0  0  0  0
   -2.0468    3.9081   24.8340 C   0  0  0  0  0  0
   -2.5176    4.9738   25.7564 C   0  0  0  0  0  0
   -1.6306    5.3731   26.6684 N   0  0  0  0  0  0
   -3.6228    5.5115   25.7674 O   0  0  0  0  0  0
   -0.6664    3.3225   24.9165 C   0  0  0  0  0  0
    0.2547    3.8263   25.5674 O   0  0  0  0  0  0
   -0.4186    1.9697   24.2117 C   0  0  2  0  0  0
    1.0861    1.6520   24.1664 C   0  0  0  0  0  0
    1.4742    1.1093   25.3336 O   0  0  0  0  0  0
   -1.0856    0.9712   24.9730 O   0  0  0  0  0  0
    0.0149    4.1980   22.1453 O   0  0  0  0  0  0
    2.7750    4.0304   21.3714 O   0  0  0  0  0  0
    1.1538    2.4753   18.9708 H   0  0  0  0  0  0
    2.4322    3.6801   18.7296 H   0  0  0  0  0  0
    0.9800    4.0897   19.5861 H   0  0  0  0  0  0
    3.7115    1.9559   18.4624 H   0  0  0  0  0  0
    5.6049    0.4157   18.3174 H   0  0  0  0  0  0
    6.5487   -0.6100   20.3639 H   0  0  0  0  0  0
    6.4010   -0.8506   22.5754 H   0  0  0  0  0  0
    1.0914    1.2041   21.2560 H   0  0  0  0  0  0
   -0.5207    2.7776   20.8133 H   0  0  0  0  0  0
   -0.9675    0.9885   22.4177 H   0  0  0  0  0  0
   -2.9875    1.4545   23.2279 H   0  0  0  0  0  0
   -3.8934    3.6839   19.9706 H   0  0  0  0  0  0
   -2.1774    3.8552   20.2721 H   0  0  0  0  0  0
   -3.3395    4.5385   21.3954 H   0  0  0  0  0  0
   -3.6630    1.2858   19.7782 H   0  0  0  0  0  0
   -3.1676    0.3363   21.1739 H   0  0  0  0  0  0
   -1.9641    1.2264   20.2375 H   0  0  0  0  0  0
   -0.7039    4.9611   26.6351 H   0  0  0  0  0  0
   -1.8731    6.0927   27.3296 H   0  0  0  0  0  0
    0.6745    0.9683   25.8243 H   0  0  0  0  0  0
   -1.9714    1.2725   25.1201 H   0  0  0  0  0  0
    0.8899    4.4814   21.8996 H   0  0  0  0  0  0
    3.6369    4.2381   21.0044 H   0  0  0  0  0  0
  1  2  1  0  0  0
  1 34  1  0  0  0
  1 35  1  0  0  0
  1 36  1  0  0  0
  2  3  1  0  0  0
  2 33  1  0  0  0
  2 13  1  0  0  0
  3  4  2  0  0  0
  3  9  1  0  0  0
  4  5  1  0  0  0
  4 37  1  0  0  0
  5  6  2  0  0  0
  5 38  1  0  0  0
  6  7  1  0  0  0
  6 39  1  0  0  0
  7  8  1  0  0  0
  7  9  2  0  0  0
  8 40  1  0  0  0
  9 10  1  0  0  0
 10 11  2  0  0  0
 10 12  1  0  0  0
 12 13  1  0  0  0
 12 29  2  0  0  0
 13 14  1  0  0  0
 13 41  1  0  0  0
 14 15  1  0  0  0
 14 32  1  0  0  0
 14 42  1  0  0  0
 15 16  1  0  0  0
 15 28  1  0  0  0
 15 43  1  0  0  0
 16 17  1  0  0  0
 16 20  1  0  0  0
 16 44  1  0  0  0
 17 18  1  0  0  0
 17 19  1  0  0  0
 18 45  1  0  0  0
 18 46  1  0  0  0
 18 47  1  0  0  0
 19 48  1  0  0  0
 19 49  1  0  0  0
 19 50  1  0  0  0
 20 21  1  0  0  0
 20 22  2  0  0  0
 22 23  1  0  0  0
 22 26  1  0  0  0
 23 24  1  0  0  0
 23 25  2  0  0  0
 24 51  1  0  0  0
 24 52  1  0  0  0
 26 27  2  0  0  0
 26 28  1  0  0  0
 28 29  1  0  0  0
 28 31  1  0  0  0
 29 30  1  0  0  0
 30 53  1  0  0  0
 31 54  1  0  0  0
 32 55  1  0  0  0
 33 56  1  0  0  0
M  CHG  1  21  -1
M  END
> <s_m_entry_id>
3189

> <s_m_entry_name>
Compounds-withfrags-for-validation-docking.1911

> <s_m_Source_Path>
/home/rodolpho/data/melina/maestro/glide-dock_XP_5RGK_M-PRO_VALIDATION

> <s_m_Source_File>
glide-dock_XP_5RGK_M-PRO_VALIDATION_pv.maegz

> <i_m_Source_File_Index>
3189

> <CID>
Oxitetracyclin

> <Potency>
15.15

> <pIC50>
4.81959

> <Source>
https://doi.org/10.1101/2020.03.23.004580

> <smiles>
C(C1(C2=C(C(=C(C(O[H])=C2C(O[H])=C2C1(C(C1(C(N(C([H])([H])[H])C([H])([H])[H])([H])C(=O)C(=C(N([H])[H])O[H])C(=O)C1(C2=O)O[H])[H])(O[H])[H])[H])[H])[H])[H])O[H])([H])([H])[H]

> <Outcome>
Inactive

> <StandardizerResult>
Clear Stereo (ID: ClearStereo)
Wedge Clean (ID: WedgeClean)
Mesomerize (ID: Mesomerize)
Tautomerize (ID: Tautomerize)
Aromatize (ID: Aromatize)
Add Explicit Hydrogens (ID: AddExplicitH)
Neutralize (ID: Neutralize)
Clean 2D (ID: Clean2D)

> <chiral flag>
0

> <version>
0

> <i_lp_mmshare_version>
41011

> <i_f3d_flags>
0

> <s_epik_input>
W09IXWMxW2NIXVtjSF1bY0hdYyhbQ0BdMihbQ0gzXSlbT0hdKWMxQyg9TylDKD1DM1tPSF0pW0NASF0yW0NASF0oW09IXSlbQ0BASF0oW0NAQF0zNFtPSF0pW0NASF0oTihbQ0gzXSlbQ0gzXSlDKD1PKVtDQEhdKEM0PU8pQyg9TylbTkgyXQ==

> <s_epik_cmdline>
J2VwaWtfcHl0aG9uJywgJy1waHQnLCAnMC41JywgJy1waCcsICc3LjQnLCAnLXRuJywgJzgnLCAnLW1hJywgJzIwMCcsICctaW1hZScsICc8aW5maWxlLm1hZT4nLCAnLW9tYWUnLCAnPG91dGZpbGUubWFlPic=

> <r_epik_Ionization_Penalty>
0.3646

> <r_epik_Ionization_Penalty_Charging>
0.0013

> <r_epik_Ionization_Penalty_Neutral>
0.3633

> <r_epik_State_Penalty>
0.3215

> <r_epik_Charging_Adjusted_Penalty>
0.322822

> <i_epik_Tot_Q>
-1

> <i_epik_Tot_abs_Q>
1

> <s_lp_Force_Field>
OPLS3

> <r_lp_Energy>
64.6878

> <b_lp_Chiralities_Consistent>
1

> <s_lp_Variant>
ligprep_COVID_compounds-withfrags-smallmolecules-forvalidation.maegz:6-19

> <i_glide_original_lignum>
71

> <s_i_glide_gridfile>
glide-grid_5RGK_M-PRO_COVID

> <i_i_glide_lignum>
71

> <r_i_docking_score>
-2.99691641130856

> <r_i_glide_ligand_efficiency>
-0.090815648827532

> <r_i_glide_ligand_efficiency_sa>
-0.29129431097565

> <r_i_glide_ligand_efficiency_ln>
-0.666498692672308

> <r_glide_XP_GScore>
-3.31841341130856

> <r_i_glide_gscore>
-3.31841341130856

> <r_i_glide_evdw>
-16.8355579376221

> <r_i_glide_ecoul>
-6.41002941131592

> <r_i_glide_energy>
-23.245587348938

> <r_i_glide_einternal>
0.0

> <r_i_glide_emodel>
-28.2767690802284

> <r_glide_XP_HBond>
-2.00945547917893

> <i_i_glide_confnum>
1

> <i_i_glide_posenum>
1

> <r_i_glide_eff_state_penalty>
0.321497

> <i_glide_XP_PoseRank>
1

> <r_lp_tautomer_probability>


> <s_epik_Chemistry_Notes>


> <MW>


> <cLogP>


> <TPSA>


> <Rotatable Bonds>


> <Fraction sp3>


> <HBA>


> <HBD>


> <Structure ID>


> <Submission Fragments>


$$$$
ligprep_COVID_compounds-withfrags-smallmolecules-forvalidation.maegz:73
                    3D
 Structure written by MMmdl.
 50 53  0  0  1  0            999 V2000
    0.7160    3.3330   19.6886 C   0  0  0  0  0  0
    2.2192    3.0473   19.8544 C   0  0  0  0  0  0
    2.5402    2.1872   21.0853 C   0  0  0  0  0  0
    1.6736    1.4420   21.5447 O   0  0  0  0  0  0
    3.7897    2.3185   21.5816 N   0  0  0  0  0  0
    4.5652    1.3777   22.2845 C   0  0  0  0  0  0
    5.9224    1.3289   21.9556 C   0  0  0  0  0  0
    6.7738    0.4474   22.6150 C   0  0  0  0  0  0
    6.2666   -0.3858   23.6142 C   0  0  0  0  0  0
    7.1385   -1.2483   24.3071 N   0  0  0  0  0  0
    6.7123   -2.6369   24.6120 C   0  0  0  0  0  0
    7.8003   -3.5793   25.1103 C   0  0  0  0  0  0
    8.2386   -3.7579   26.4215 C   0  0  0  0  0  0
    9.4939   -4.9588   26.4602 S   0  0  0  0  0  0
    9.3300   -5.0899   24.7428 C   0  0  0  0  0  0
    8.4258   -4.3127   24.2043 N   0  0  0  0  0  0
    8.4420   -0.9004   24.5135 C   0  0  0  0  0  0
    9.3749   -1.6548   24.2203 O   0  0  0  0  0  0
    8.7655    0.4698   25.1603 C   0  0  0  0  0  0
    9.9512    1.1389   24.6293 N   0  0  0  0  0  0
   11.0866    0.4442   24.4143 N   0  0  0  0  0  0
   12.0294    1.2993   23.8874 N   0  0  0  0  0  0
   11.4469    2.5263   23.7702 C   0  0  0  0  0  0
   11.9641    3.7358   23.2864 C   0  0  0  0  0  0
   11.1227    4.8492   23.2801 C   0  0  0  0  0  0
    9.8066    4.7663   23.7387 C   0  0  0  0  0  0
    9.2652    3.5736   24.2261 C   0  0  0  0  0  0
   10.1105    2.4579   24.2346 C   0  0  0  0  0  0
    4.9129   -0.3374   23.9584 C   0  0  0  0  0  0
    4.0632    0.5443   23.2971 C   0  0  0  0  0  0
    0.5356    3.9407   18.8015 H   0  0  0  0  0  0
    0.3110    3.8779   20.5427 H   0  0  0  0  0  0
    0.1436    2.4114   19.5755 H   0  0  0  0  0  0
    2.5979    2.5761   18.9455 H   0  0  0  0  0  0
    2.7580    3.9902   19.9543 H   0  0  0  0  0  0
    4.2533    3.1975   21.4047 H   0  0  0  0  0  0
    6.3261    1.9740   21.1882 H   0  0  0  0  0  0
    7.8228    0.4201   22.3571 H   0  0  0  0  0  0
    5.9063   -2.5908   25.3464 H   0  0  0  0  0  0
    6.2748   -3.0675   23.7096 H   0  0  0  0  0  0
    7.8916   -3.2738   27.3222 H   0  0  0  0  0  0
    9.9426   -5.7710   24.1709 H   0  0  0  0  0  0
    7.9244    1.1520   25.0326 H   0  0  0  0  0  0
    8.9013    0.3268   26.2341 H   0  0  0  0  0  0
   12.9805    3.8078   22.9277 H   0  0  0  0  0  0
   11.4963    5.7935   22.9120 H   0  0  0  0  0  0
    9.1882    5.6515   23.7156 H   0  0  0  0  0  0
    8.2448    3.5236   24.5770 H   0  0  0  0  0  0
    4.5233   -0.9688   24.7440 H   0  0  0  0  0  0
    3.0294    0.5768   23.6032 H   0  0  0  0  0  0
  1  2  1  0  0  0
  1 31  1  0  0  0
  1 32  1  0  0  0
  1 33  1  0  0  0
  2  3  1  0  0  0
  2 34  1  0  0  0
  2 35  1  0  0  0
  3  4  2  0  0  0
  3  5  1  0  0  0
  5  6  1  0  0  0
  5 36  1  0  0  0
  6  7  2  0  0  0
  6 30  1  0  0  0
  7  8  1  0  0  0
  7 37  1  0  0  0
  8  9  2  0  0  0
  8 38  1  0  0  0
  9 10  1  0  0  0
  9 29  1  0  0  0
 10 11  1  0  0  0
 10 17  1  0  0  0
 11 12  1  0  0  0
 11 39  1  0  0  0
 11 40  1  0  0  0
 12 13  2  0  0  0
 12 16  1  0  0  0
 13 14  1  0  0  0
 13 41  1  0  0  0
 14 15  1  0  0  0
 15 16  2  0  0  0
 15 42  1  0  0  0
 17 18  2  0  0  0
 17 19  1  0  0  0
 19 20  1  0  0  0
 19 43  1  0  0  0
 19 44  1  0  0  0
 20 21  1  0  0  0
 20 28  1  0  0  0
 21 22  2  0  0  0
 22 23  1  0  0  0
 23 24  2  0  0  0
 23 28  1  0  0  0
 24 25  1  0  0  0
 24 45  1  0  0  0
 25 26  2  0  0  0
 25 46  1  0  0  0
 26 27  1  0  0  0
 26 47  1  0  0  0
 27 28  2  0  0  0
 27 48  1  0  0  0
 29 30  2  0  0  0
 29 49  1  0  0  0
 30 50  1  0  0  0
M  END
> <s_m_entry_id>
3211

> <s_m_entry_name>
Compounds-withfrags-for-validation-docking.1844

> <s_m_Source_Path>
/home/rodolpho/data/melina/maestro/glide-dock_XP_5RGK_M-PRO_VALIDATION

> <s_m_Source_File>
glide-dock_XP_5RGK_M-PRO_VALIDATION_pv.maegz

> <i_m_Source_File_Index>
3211

> <CID>
ALP-POS-87c86d55-2

> <Potency>
24.9603

> <pIC50>
4.60275

> <Source>
Postera

> <smiles>
CCC(=O)Nc1ccc(N(Cc2cscn2)C(=O)Cn2nnc3ccccc32)cc1

> <Outcome>
Inactive

> <StandardizerResult>
Clear Stereo (ID: ClearStereo)
Wedge Clean (ID: WedgeClean)
Mesomerize (ID: Mesomerize)
Tautomerize (ID: Tautomerize)
Aromatize (ID: Aromatize)
Add Explicit Hydrogens (ID: AddExplicitH)
Neutralize (ID: Neutralize)
Clean 2D (ID: Clean2D)

> <chiral flag>
0

> <version>
0

> <i_lp_mmshare_version>
41011

> <i_f3d_flags>
0

> <s_epik_input>
W0NIM11bQ0gyXUMoPU8pW05IXWMxW2NIXVtjSF1jKFtjSF1bY0hdMSlOKFtDSDJdYzJbY0hdc1tjSF1uMilDKD1PKVtDSDJdbihubjMpYyhjMzQpW2NIXVtjSF1bY0hdW2NIXTQ=

> <s_epik_cmdline>
J2VwaWtfcHl0aG9uJywgJy1waHQnLCAnMC41JywgJy1waCcsICc3LjQnLCAnLXRuJywgJzgnLCAnLW1hJywgJzIwMCcsICctaW1hZScsICc8aW5maWxlLm1hZT4nLCAnLW9tYWUnLCAnPG91dGZpbGUubWFlPic=

> <r_lp_tautomer_probability>
1.0

> <r_epik_Ionization_Penalty>
0.0

> <r_epik_Ionization_Penalty_Charging>
0.0

> <r_epik_Ionization_Penalty_Neutral>
0.0

> <r_epik_State_Penalty>
0.0

> <r_epik_Charging_Adjusted_Penalty>
0.0

> <i_epik_Tot_Q>
0

> <i_epik_Tot_abs_Q>
0

> <s_lp_Force_Field>
OPLS3

> <r_lp_Energy>
38.2772

> <b_lp_Chiralities_Consistent>
1

> <s_lp_Variant>
ligprep_COVID_compounds-withfrags-smallmolecules-forvalidation.maegz:73-1

> <i_glide_original_lignum>
247

> <s_i_glide_gridfile>
glide-grid_5RGK_M-PRO_COVID

> <i_i_glide_lignum>
247

> <r_i_docking_score>
-2.98235124045783

> <r_i_glide_ligand_efficiency>
-0.099411708015261

> <r_i_glide_ligand_efficiency_sa>
-0.308895290267208

> <r_i_glide_ligand_efficiency_ln>
-0.677622697151455

> <r_glide_XP_GScore>
-2.98235124045783

> <r_i_glide_gscore>
-2.98235124045783

> <r_i_glide_evdw>
-38.2093276977539

> <r_i_glide_ecoul>
-12.333044052124

> <r_i_glide_energy>
-50.5423717498779

> <r_i_glide_einternal>
3.14556002616882

> <r_i_glide_emodel>
-72.6794696876433

> <r_glide_XP_HBond>
-0.888029662944967

> <i_i_glide_confnum>
1

> <i_i_glide_posenum>
25

> <r_i_glide_eff_state_penalty>
0.0

> <i_glide_XP_PoseRank>
1

> <MW>
420.14

> <cLogP>
3.47

> <TPSA>
93.01

> <Rotatable Bonds>
7

> <Fraction sp3>
0.19

> <HBA>
7

> <HBD>
1

> <s_epik_Chemistry_Notes>


> <Structure ID>


> <Submission Fragments>


$$$$
ligprep_COVID_compounds-withfrags-smallmolecules-forvalidation.maegz:6
                    3D
 Structure written by MMmdl.
 57 60  0  0  1  0            999 V2000
    3.2193    1.0931   23.9497 C   0  0  0  0  0  0
    3.9083    2.0893   22.9975 C   0  0  1  0  0  0
    4.6046    1.3028   21.8706 C   0  0  0  0  0  0
    5.6766    0.4477   22.2118 C   0  0  0  0  0  0
    6.3748   -0.2611   21.2225 C   0  0  0  0  0  0
    6.0589   -0.0732   19.8693 C   0  0  0  0  0  0
    5.0089    0.7868   19.5037 C   0  0  0  0  0  0
    4.7794    0.9633   18.1705 O   0  0  0  0  0  0
    4.2303    1.4361   20.5002 C   0  0  0  0  0  0
    3.0201    2.2362   20.1374 C   0  0  0  0  0  0
    2.7748    2.6362   18.9974 O   0  0  0  0  0  0
    2.1592    2.5871   21.2709 C   0  0  0  0  0  0
    2.9298    3.1669   22.4330 C   0  0  1  0  0  0
    2.0079    3.9439   23.4192 C   0  0  2  0  0  0
    0.6507    3.2393   23.6906 C   0  0  1  0  0  0
   -0.3369    3.9144   24.6906 C   0  0  2  0  0  0
    0.2265    4.2090   26.0459 N   0  3  0  0  0  0
    0.8130    5.5592   26.2135 C   0  0  0  0  0  0
    1.0009    3.1301   26.7011 C   0  0  0  0  0  0
   -1.6553    3.0942   24.8630 C   0  0  0  0  0  0
   -2.2694    3.5863   25.8457 O   0  5  0  0  0  0
   -1.9395    1.9978   24.0157 C   0  0  0  0  0  0
   -3.1337    1.1468   24.2136 C   0  0  0  0  0  0
   -3.8813    1.4560   25.2705 N   0  0  0  0  0  0
   -3.4813    0.2092   23.4996 O   0  0  0  0  0  0
   -1.0259    1.6623   22.8800 C   0  0  0  0  0  0
   -0.9576    0.5563   22.3396 O   0  0  0  0  0  0
   -0.1184    2.8139   22.4034 C   0  0  2  0  0  0
    0.8201    2.4359   21.2500 C   0  0  0  0  0  0
    0.1360    2.0027   20.1764 O   0  0  0  0  0  0
   -0.9742    3.8350   21.9143 O   0  0  0  0  0  0
    1.7537    5.2395   22.9096 O   0  0  0  0  0  0
    4.8610    2.7886   23.7708 O   0  0  0  0  0  0
    2.3588    0.6363   23.4637 H   0  0  0  0  0  0
    2.8766    1.5728   24.8630 H   0  0  0  0  0  0
    3.8845    0.2885   24.2630 H   0  0  0  0  0  0
    5.9715    0.3292   23.2442 H   0  0  0  0  0  0
    7.1748   -0.9281   21.5020 H   0  0  0  0  0  0
    6.6257   -0.5914   19.1096 H   0  0  0  0  0  0
    4.1000    1.6077   17.9941 H   0  0  0  0  0  0
    3.5747    3.9258   21.9834 H   0  0  0  0  0  0
    2.5610    4.0807   24.3452 H   0  0  0  0  0  0
    0.9401    2.3136   24.1793 H   0  0  0  0  0  0
   -0.6269    4.8745   24.2607 H   0  0  0  0  0  0
    1.7596    5.6658   25.6873 H   0  0  0  0  0  0
    0.9948    5.7637   27.2691 H   0  0  0  0  0  0
    0.1327    6.3286   25.8474 H   0  0  0  0  0  0
    2.0190    3.0761   26.3200 H   0  0  0  0  0  0
    0.5207    2.1608   26.5632 H   0  0  0  0  0  0
    1.0616    3.3151   27.7737 H   0  0  0  0  0  0
   -3.5787    2.2582   25.8201 H   0  0  0  0  0  0
   -4.7132    0.9318   25.4888 H   0  0  0  0  0  0
   -0.7803    2.1481   20.3653 H   0  0  0  0  0  0
   -1.7150    3.9012   22.4998 H   0  0  0  0  0  0
    2.5586    5.5880   22.5506 H   0  0  0  0  0  0
    5.3288    3.3681   23.1748 H   0  0  0  0  0  0
   -0.6536    4.2342   26.5561 H   0  0  0  0  0  0
  1  2  1  0  0  0
  1 34  1  0  0  0
  1 35  1  0  0  0
  1 36  1  0  0  0
  2  3  1  0  0  0
  2 33  1  0  0  0
  2 13  1  0  0  0
  3  4  2  0  0  0
  3  9  1  0  0  0
  4  5  1  0  0  0
  4 37  1  0  0  0
  5  6  2  0  0  0
  5 38  1  0  0  0
  6  7  1  0  0  0
  6 39  1  0  0  0
  7  8  1  0  0  0
  7  9  2  0  0  0
  8 40  1  0  0  0
  9 10  1  0  0  0
 10 11  2  0  0  0
 10 12  1  0  0  0
 12 13  1  0  0  0
 12 29  2  0  0  0
 13 14  1  0  0  0
 13 41  1  0  0  0
 14 15  1  0  0  0
 14 32  1  0  0  0
 14 42  1  0  0  0
 15 16  1  0  0  0
 15 28  1  0  0  0
 15 43  1  0  0  0
 16 17  1  0  0  0
 16 20  1  0  0  0
 16 44  1  0  0  0
 17 18  1  0  0  0
 17 19  1  0  0  0
 17 57  1  0  0  0
 18 45  1  0  0  0
 18 46  1  0  0  0
 18 47  1  0  0  0
 19 48  1  0  0  0
 19 49  1  0  0  0
 19 50  1  0  0  0
 20 21  1  0  0  0
 20 22  2  0  0  0
 22 23  1  0  0  0
 22 26  1  0  0  0
 23 24  1  0  0  0
 23 25  2  0  0  0
 24 51  1  0  0  0
 24 52  1  0  0  0
 26 27  2  0  0  0
 26 28  1  0  0  0
 28 29  1  0  0  0
 28 31  1  0  0  0
 29 30  1  0  0  0
 30 53  1  0  0  0
 31 54  1  0  0  0
 32 55  1  0  0  0
 33 56  1  0  0  0
M  CHG  2  17   1  21  -1
M  END
> <s_m_entry_id>
3221

> <s_m_entry_name>
Compounds-withfrags-for-validation-docking.1911

> <s_m_Source_Path>
/home/rodolpho/data/melina/maestro/glide-dock_XP_5RGK_M-PRO_VALIDATION

> <s_m_Source_File>
glide-dock_XP_5RGK_M-PRO_VALIDATION_pv.maegz

> <i_m_Source_File_Index>
3221

> <CID>
Oxitetracyclin

> <Potency>
15.15

> <pIC50>
4.81959

> <Source>
https://doi.org/10.1101/2020.03.23.004580

> <smiles>
C(C1(C2=C(C(=C(C(O[H])=C2C(O[H])=C2C1(C(C1(C(N(C([H])([H])[H])C([H])([H])[H])([H])C(=O)C(=C(N([H])[H])O[H])C(=O)C1(C2=O)O[H])[H])(O[H])[H])[H])[H])[H])[H])O[H])([H])([H])[H]

> <Outcome>
Inactive

> <StandardizerResult>
Clear Stereo (ID: ClearStereo)
Wedge Clean (ID: WedgeClean)
Mesomerize (ID: Mesomerize)
Tautomerize (ID: Tautomerize)
Aromatize (ID: Aromatize)
Add Explicit Hydrogens (ID: AddExplicitH)
Neutralize (ID: Neutralize)
Clean 2D (ID: Clean2D)

> <chiral flag>
0

> <version>
0

> <i_lp_mmshare_version>
41011

> <i_f3d_flags>
3

> <s_epik_input>
W09IXWMxW2NIXVtjSF1bY0hdYyhbQ0BAXTIoW0NIM10pW09IXSljMUMoPU8pQyg9QzNbT0hdKVtDQEBIXTJbQ0BASF0oW09IXSlbQ0BIXShbQ0BAXTM0W09IXSlbQ0BIXShOKFtDSDNdKVtDSDNdKUMoPU8pW0NASF0oQzQ9TylDKD1PKVtOSDJd

> <s_epik_cmdline>
J2VwaWtfcHl0aG9uJywgJy1waHQnLCAnMC41JywgJy1waCcsICc3LjQnLCAnLXRuJywgJzgnLCAnLW1hJywgJzIwMCcsICctaW1hZScsICc8aW5maWxlLm1hZT4nLCAnLW9tYWUnLCAnPG91dGZpbGUubWFlPic=

> <r_epik_Ionization_Penalty>
0.6144

> <r_epik_Ionization_Penalty_Charging>
0.5087

> <r_epik_Ionization_Penalty_Neutral>
0.1057

> <r_epik_State_Penalty>
0.5157

> <r_epik_Charging_Adjusted_Penalty>
1.02439

> <i_epik_Tot_Q>
0

> <i_epik_Tot_abs_Q>
2

> <s_lp_Force_Field>
OPLS3

> <r_lp_Energy>
50.8914

> <b_lp_Chiralities_Consistent>
0

> <s_lp_Variant>
ligprep_COVID_compounds-withfrags-smallmolecules-forvalidation.maegz:6-41

> <i_glide_original_lignum>
93

> <s_i_glide_gridfile>
glide-grid_5RGK_M-PRO_COVID

> <i_i_glide_lignum>
93

> <r_i_docking_score>
-2.9710518540213

> <r_i_glide_ligand_efficiency>
-0.0900318743642817

> <r_i_glide_ligand_efficiency_sa>
-0.28878032748073

> <r_i_glide_ligand_efficiency_ln>
-0.660746549051132

> <r_glide_XP_GScore>
-3.4867588540213

> <r_i_glide_gscore>
-3.4867588540213

> <r_i_glide_evdw>
-21.0243453979492

> <r_i_glide_ecoul>
-8.04960536956787

> <r_i_glide_energy>
-29.0739507675171

> <r_i_glide_einternal>
3.95528078079224

> <r_i_glide_emodel>
-24.9419927502983

> <r_glide_XP_HBond>
-1.66

> <i_i_glide_confnum>
1

> <i_i_glide_posenum>
9

> <r_i_glide_eff_state_penalty>
0.515707

> <i_glide_XP_PoseRank>
1

> <r_lp_tautomer_probability>


> <s_epik_Chemistry_Notes>


> <MW>


> <cLogP>


> <TPSA>


> <Rotatable Bonds>


> <Fraction sp3>


> <HBA>


> <HBD>


> <Structure ID>


> <Submission Fragments>


$$$$
ligprep_COVID_compounds-withfrags-smallmolecules-forvalidation.maegz:6
                    3D
 Structure written by MMmdl.
 56 59  0  0  1  0            999 V2000
    2.3752    4.0651   21.2573 C   0  0  0  0  0  0
    2.1107    2.5974   20.8748 C   0  0  1  0  0  0
    3.4164    1.8843   20.4829 C   0  0  0  0  0  0
    3.8340    1.8315   19.1331 C   0  0  0  0  0  0
    4.9972    1.1374   18.7582 C   0  0  0  0  0  0
    5.7752    0.4998   19.7360 C   0  0  0  0  0  0
    5.4060    0.5761   21.0925 C   0  0  0  0  0  0
    6.1950   -0.0723   22.0032 O   0  0  0  0  0  0
    4.2329    1.2870   21.4739 C   0  0  0  0  0  0
    3.8339    1.4356   22.8974 C   0  0  0  0  0  0
    4.6807    1.6063   23.7707 O   0  0  0  0  0  0
    2.3707    1.4363   23.1913 C   0  0  0  0  0  0
    1.4246    1.7960   22.0289 C   0  0  1  0  0  0
   -0.0377    2.1499   22.4932 C   0  0  1  0  0  0
   -0.2263    2.3901   24.0155 C   0  0  2  0  0  0
    0.2927    3.7986   24.4776 C   0  0  1  0  0  0
   -0.7718    4.7710   24.1282 N   0  0  0  0  0  0
   -0.2743    6.0972   23.7720 C   0  0  0  0  0  0
   -1.8109    4.9123   25.1472 C   0  0  0  0  0  0
    0.7982    3.8880   25.9605 C   0  0  0  0  0  0
    1.2935    5.0286   26.1240 O   0  5  0  0  0  0
    0.6733    2.7970   26.8351 C   0  0  0  0  0  0
    1.0674    2.9845   28.2511 C   0  0  0  0  0  0
    0.9046    1.9151   29.0303 N   0  0  0  0  0  0
    1.5179    4.0060   28.7624 O   0  0  0  0  0  0
    0.1753    1.5029   26.3012 C   0  0  0  0  0  0
   -0.3417    0.6145   26.9870 O   0  0  0  0  0  0
    0.4102    1.2290   24.8013 C   0  0  2  0  0  0
    1.8935    1.1039   24.4171 C   0  0  0  0  0  0
    2.6637    0.6953   25.4438 O   0  0  0  0  0  0
   -0.2313    0.0049   24.4830 O   0  0  0  0  0  0
   -0.7243    3.1487   21.7652 O   0  0  0  0  0  0
    1.2268    2.6361   19.7708 O   0  0  0  0  0  0
    3.0920    4.1535   22.0745 H   0  0  0  0  0  0
    1.4635    4.5741   21.5605 H   0  0  0  0  0  0
    2.7747    4.6269   20.4151 H   0  0  0  0  0  0
    3.2680    2.3307   18.3626 H   0  0  0  0  0  0
    5.2878    1.0989   17.7193 H   0  0  0  0  0  0
    6.6633   -0.0405   19.4415 H   0  0  0  0  0  0
    6.9794   -0.4484   21.6304 H   0  0  0  0  0  0
    1.2831    0.8199   21.5639 H   0  0  0  0  0  0
   -0.6281    1.2617   22.2606 H   0  0  0  0  0  0
   -1.2980    2.3355   24.2139 H   0  0  0  0  0  0
    1.1542    4.0168   23.8455 H   0  0  0  0  0  0
    0.5199    6.0335   23.0291 H   0  0  0  0  0  0
    0.1111    6.6415   24.6337 H   0  0  0  0  0  0
   -1.0776    6.6949   23.3406 H   0  0  0  0  0  0
   -2.2267    3.9459   25.4308 H   0  0  0  0  0  0
   -2.6304    5.5244   24.7699 H   0  0  0  0  0  0
   -1.4283    5.3913   26.0490 H   0  0  0  0  0  0
    0.4809    1.0869   28.6316 H   0  0  0  0  0  0
    1.1549    1.9666   30.0056 H   0  0  0  0  0  0
    2.1032    0.5677   26.1951 H   0  0  0  0  0  0
   -0.7761   -0.2059   25.2322 H   0  0  0  0  0  0
   -0.7433    3.9307   22.3083 H   0  0  0  0  0  0
    1.6102    3.2118   19.1243 H   0  0  0  0  0  0
  1  2  1  0  0  0
  1 34  1  0  0  0
  1 35  1  0  0  0
  1 36  1  0  0  0
  2  3  1  0  0  0
  2 33  1  0  0  0
  2 13  1  0  0  0
  3  4  2  0  0  0
  3  9  1  0  0  0
  4  5  1  0  0  0
  4 37  1  0  0  0
  5  6  2  0  0  0
  5 38  1  0  0  0
  6  7  1  0  0  0
  6 39  1  0  0  0
  7  8  1  0  0  0
  7  9  2  0  0  0
  8 40  1  0  0  0
  9 10  1  0  0  0
 10 11  2  0  0  0
 10 12  1  0  0  0
 12 13  1  0  0  0
 12 29  2  0  0  0
 13 14  1  0  0  0
 13 41  1  0  0  0
 14 15  1  0  0  0
 14 32  1  0  0  0
 14 42  1  0  0  0
 15 16  1  0  0  0
 15 28  1  0  0  0
 15 43  1  0  0  0
 16 17  1  0  0  0
 16 20  1  0  0  0
 16 44  1  0  0  0
 17 18  1  0  0  0
 17 19  1  0  0  0
 18 45  1  0  0  0
 18 46  1  0  0  0
 18 47  1  0  0  0
 19 48  1  0  0  0
 19 49  1  0  0  0
 19 50  1  0  0  0
 20 21  1  0  0  0
 20 22  2  0  0  0
 22 23  1  0  0  0
 22 26  1  0  0  0
 23 24  1  0  0  0
 23 25  2  0  0  0
 24 51  1  0  0  0
 24 52  1  0  0  0
 26 27  2  0  0  0
 26 28  1  0  0  0
 28 29  1  0  0  0
 28 31  1  0  0  0
 29 30  1  0  0  0
 30 53  1  0  0  0
 31 54  1  0  0  0
 32 55  1  0  0  0
 33 56  1  0  0  0
M  CHG  1  21  -1
M  END
> <s_m_entry_id>
3240

> <s_m_entry_name>
Compounds-withfrags-for-validation-docking.1911

> <s_m_Source_Path>
/home/rodolpho/data/melina/maestro/glide-dock_XP_5RGK_M-PRO_VALIDATION

> <s_m_Source_File>
glide-dock_XP_5RGK_M-PRO_VALIDATION_pv.maegz

> <i_m_Source_File_Index>
3240

> <CID>
Oxitetracyclin

> <Potency>
15.15

> <pIC50>
4.81959

> <Source>
https://doi.org/10.1101/2020.03.23.004580

> <smiles>
C(C1(C2=C(C(=C(C(O[H])=C2C(O[H])=C2C1(C(C1(C(N(C([H])([H])[H])C([H])([H])[H])([H])C(=O)C(=C(N([H])[H])O[H])C(=O)C1(C2=O)O[H])[H])(O[H])[H])[H])[H])[H])[H])O[H])([H])([H])[H]

> <Outcome>
Inactive

> <StandardizerResult>
Clear Stereo (ID: ClearStereo)
Wedge Clean (ID: WedgeClean)
Mesomerize (ID: Mesomerize)
Tautomerize (ID: Tautomerize)
Aromatize (ID: Aromatize)
Add Explicit Hydrogens (ID: AddExplicitH)
Neutralize (ID: Neutralize)
Clean 2D (ID: Clean2D)

> <chiral flag>
0

> <version>
0

> <i_lp_mmshare_version>
41011

> <i_f3d_flags>
0

> <s_epik_input>
W09IXWMxW2NIXVtjSF1bY0hdYyhbQ0BAXTIoW0NIM10pW09IXSljMUMoPU8pQyg9QzNbT0hdKVtDQEhdMltDQEhdKFtPSF0pW0NAQEhdKFtDQEBdMzRbT0hdKVtDQEBIXShOKFtDSDNdKVtDSDNdKUMoPU8pW0NASF0oQzQ9TylDKD1PKVtOSDJd

> <s_epik_cmdline>
J2VwaWtfcHl0aG9uJywgJy1waHQnLCAnMC41JywgJy1waCcsICc3LjQnLCAnLXRuJywgJzgnLCAnLW1hJywgJzIwMCcsICctaW1hZScsICc8aW5maWxlLm1hZT4nLCAnLW9tYWUnLCAnPG91dGZpbGUubWFlPic=

> <r_epik_Ionization_Penalty>
0.3646

> <r_epik_Ionization_Penalty_Charging>
0.0013

> <r_epik_Ionization_Penalty_Neutral>
0.3633

> <r_epik_State_Penalty>
0.3215

> <r_epik_Charging_Adjusted_Penalty>
0.322822

> <i_epik_Tot_Q>
-1

> <i_epik_Tot_abs_Q>
1

> <s_lp_Force_Field>
OPLS3

> <r_lp_Energy>
65.271

> <b_lp_Chiralities_Consistent>
1

> <s_lp_Variant>
ligprep_COVID_compounds-withfrags-smallmolecules-forvalidation.maegz:6-16

> <i_glide_original_lignum>
68

> <s_i_glide_gridfile>
glide-grid_5RGK_M-PRO_COVID

> <i_i_glide_lignum>
68

> <r_i_docking_score>
-2.95398154863333

> <r_i_glide_ligand_efficiency>
-0.0895145923828282

> <r_i_glide_ligand_efficiency_sa>
-0.287121127768864

> <r_i_glide_ligand_efficiency_ln>
-0.656950201518159

> <r_glide_XP_GScore>
-3.27547854863333

> <r_i_glide_gscore>
-3.27547854863333

> <r_i_glide_evdw>
-17.1347465515137

> <r_i_glide_ecoul>
-5.31992387771606

> <r_i_glide_energy>
-22.4546704292297

> <r_i_glide_einternal>
2.74842190742493

> <r_i_glide_emodel>
-22.627284433027

> <r_glide_XP_HBond>
-0.96

> <i_i_glide_confnum>
1

> <i_i_glide_posenum>
29

> <r_i_glide_eff_state_penalty>
0.321497

> <i_glide_XP_PoseRank>
1

> <r_lp_tautomer_probability>


> <s_epik_Chemistry_Notes>


> <MW>


> <cLogP>


> <TPSA>


> <Rotatable Bonds>


> <Fraction sp3>


> <HBA>


> <HBD>


> <Structure ID>


> <Submission Fragments>


$$$$
ligprep_COVID_compounds-withfrags-smallmolecules-forvalidation.maegz:6
                    3D
 Structure written by MMmdl.
 56 59  0  0  1  0            999 V2000
    1.8732    3.3355   19.3018 C   0  0  0  0  0  0
    2.3490    2.6280   20.5941 C   0  0  1  0  0  0
    3.6441    1.8150   20.4160 C   0  0  0  0  0  0
    4.1189    1.4363   19.1362 C   0  0  0  0  0  0
    5.2674    0.6429   18.9861 C   0  0  0  0  0  0
    5.9765    0.2228   20.1198 C   0  0  0  0  0  0
    5.5368    0.5928   21.4043 C   0  0  0  0  0  0
    6.2900    0.1738   22.4657 O   0  0  0  0  0  0
    4.3624    1.3838   21.5627 C   0  0  0  0  0  0
    3.8731    1.7906   22.9120 C   0  0  0  0  0  0
    3.9749    1.0350   23.8803 O   0  0  0  0  0  0
    3.1967    3.1154   23.0113 C   0  0  0  0  0  0
    2.5148    3.6619   21.7567 C   0  0  2  0  0  0
    1.2323    4.4455   22.1627 C   0  0  2  0  0  0
    1.5353    5.5982   23.1561 C   0  0  2  0  0  0
    2.0600    6.8582   22.3839 C   0  0  1  0  0  0
    1.1833    8.0202   22.6593 N   0  0  0  0  0  0
    1.3831    8.6171   23.9767 C   0  0  0  0  0  0
    1.3097    9.0760   21.6595 C   0  0  0  0  0  0
    3.5802    7.1328   22.5206 C   0  0  0  0  0  0
    3.9776    7.6298   21.4364 O   0  5  0  0  0  0
    4.2374    6.7914   23.7105 C   0  0  0  0  0  0
    5.6757    7.0500   23.9240 C   0  0  0  0  0  0
    6.3248    7.5038   22.8548 N   0  0  0  0  0  0
    6.2996    6.8611   24.9672 O   0  0  0  0  0  0
    3.4625    6.1591   24.7979 C   0  0  0  0  0  0
    3.6890    6.3513   25.9962 O   0  0  0  0  0  0
    2.3816    5.1284   24.3961 C   0  0  2  0  0  0
    3.0968    3.7824   24.1878 C   0  0  0  0  0  0
    3.5725    3.3356   25.3658 O   0  0  0  0  0  0
    1.4693    4.9585   25.4753 O   0  0  0  0  0  0
    0.2580    3.5828   22.7349 O   0  0  0  0  0  0
    1.2991    1.7430   20.9451 O   0  0  0  0  0  0
    2.6024    4.0567   18.9392 H   0  0  0  0  0  0
    0.9322    3.8649   19.4310 H   0  0  0  0  0  0
    1.6890    2.6366   18.4955 H   0  0  0  0  0  0
    3.6132    1.7419   18.2367 H   0  0  0  0  0  0
    5.6005    0.3595   17.9990 H   0  0  0  0  0  0
    6.8648   -0.3802   19.9982 H   0  0  0  0  0  0
    7.0520   -0.3217   22.2056 H   0  0  0  0  0  0
    3.2185    4.4019   21.3744 H   0  0  0  0  0  0
    0.7491    4.8736   21.2874 H   0  0  0  0  0  0
    0.5515    5.8899   23.5303 H   0  0  0  0  0  0
    1.8707    6.6525   21.3289 H   0  0  0  0  0  0
    1.2164    7.8864   24.7678 H   0  0  0  0  0  0
    0.6758    9.4311   24.1379 H   0  0  0  0  0  0
    2.3899    9.0216   24.0885 H   0  0  0  0  0  0
    1.1798    8.6761   20.6535 H   0  0  0  0  0  0
    2.2819    9.5678   21.7087 H   0  0  0  0  0  0
    0.5441    9.8370   21.8116 H   0  0  0  0  0  0
    5.7607    7.6124   22.0117 H   0  0  0  0  0  0
    7.3185    7.6552   22.8688 H   0  0  0  0  0  0
    3.3359    3.9906   26.0102 H   0  0  0  0  0  0
    0.8541    4.2858   25.2253 H   0  0  0  0  0  0
   -0.5293    4.0854   22.8905 H   0  0  0  0  0  0
    0.7018    2.2363   21.4999 H   0  0  0  0  0  0
  1  2  1  0  0  0
  1 34  1  0  0  0
  1 35  1  0  0  0
  1 36  1  0  0  0
  2  3  1  0  0  0
  2 33  1  0  0  0
  2 13  1  0  0  0
  3  4  2  0  0  0
  3  9  1  0  0  0
  4  5  1  0  0  0
  4 37  1  0  0  0
  5  6  2  0  0  0
  5 38  1  0  0  0
  6  7  1  0  0  0
  6 39  1  0  0  0
  7  8  1  0  0  0
  7  9  2  0  0  0
  8 40  1  0  0  0
  9 10  1  0  0  0
 10 11  2  0  0  0
 10 12  1  0  0  0
 12 13  1  0  0  0
 12 29  2  0  0  0
 13 14  1  0  0  0
 13 41  1  0  0  0
 14 15  1  0  0  0
 14 32  1  0  0  0
 14 42  1  0  0  0
 15 16  1  0  0  0
 15 28  1  0  0  0
 15 43  1  0  0  0
 16 17  1  0  0  0
 16 20  1  0  0  0
 16 44  1  0  0  0
 17 18  1  0  0  0
 17 19  1  0  0  0
 18 45  1  0  0  0
 18 46  1  0  0  0
 18 47  1  0  0  0
 19 48  1  0  0  0
 19 49  1  0  0  0
 19 50  1  0  0  0
 20 21  1  0  0  0
 20 22  2  0  0  0
 22 23  1  0  0  0
 22 26  1  0  0  0
 23 24  1  0  0  0
 23 25  2  0  0  0
 24 51  1  0  0  0
 24 52  1  0  0  0
 26 27  2  0  0  0
 26 28  1  0  0  0
 28 29  1  0  0  0
 28 31  1  0  0  0
 29 30  1  0  0  0
 30 53  1  0  0  0
 31 54  1  0  0  0
 32 55  1  0  0  0
 33 56  1  0  0  0
M  CHG  1  21  -1
M  END
> <s_m_entry_id>
3241

> <s_m_entry_name>
Compounds-withfrags-for-validation-docking.1911

> <s_m_Source_Path>
/home/rodolpho/data/melina/maestro/glide-dock_XP_5RGK_M-PRO_VALIDATION

> <s_m_Source_File>
glide-dock_XP_5RGK_M-PRO_VALIDATION_pv.maegz

> <i_m_Source_File_Index>
3241

> <CID>
Oxitetracyclin

> <Potency>
15.15

> <pIC50>
4.81959

> <Source>
https://doi.org/10.1101/2020.03.23.004580

> <smiles>
C(C1(C2=C(C(=C(C(O[H])=C2C(O[H])=C2C1(C(C1(C(N(C([H])([H])[H])C([H])([H])[H])([H])C(=O)C(=C(N([H])[H])O[H])C(=O)C1(C2=O)O[H])[H])(O[H])[H])[H])[H])[H])[H])O[H])([H])([H])[H]

> <Outcome>
Inactive

> <StandardizerResult>
Clear Stereo (ID: ClearStereo)
Wedge Clean (ID: WedgeClean)
Mesomerize (ID: Mesomerize)
Tautomerize (ID: Tautomerize)
Aromatize (ID: Aromatize)
Add Explicit Hydrogens (ID: AddExplicitH)
Neutralize (ID: Neutralize)
Clean 2D (ID: Clean2D)

> <chiral flag>
0

> <version>
0

> <i_lp_mmshare_version>
41011

> <i_f3d_flags>
0

> <s_epik_input>
W09IXWMxW2NIXVtjSF1bY0hdYyhbQ0BAXTIoW0NIM10pW09IXSljMUMoPU8pQyg9QzNbT0hdKVtDQEBIXTJbQ0BASF0oW09IXSlbQ0BASF0oW0NAQF0zNFtPSF0pW0NAQEhdKE4oW0NIM10pW0NIM10pQyg9TylbQ0BIXShDND1PKUMoPU8pW05IMl0=

> <s_epik_cmdline>
J2VwaWtfcHl0aG9uJywgJy1waHQnLCAnMC41JywgJy1waCcsICc3LjQnLCAnLXRuJywgJzgnLCAnLW1hJywgJzIwMCcsICctaW1hZScsICc8aW5maWxlLm1hZT4nLCAnLW9tYWUnLCAnPG91dGZpbGUubWFlPic=

> <r_epik_Ionization_Penalty>
0.3646

> <r_epik_Ionization_Penalty_Charging>
0.0013

> <r_epik_Ionization_Penalty_Neutral>
0.3633

> <r_epik_State_Penalty>
0.3215

> <r_epik_Charging_Adjusted_Penalty>
0.322822

> <i_epik_Tot_Q>
-1

> <i_epik_Tot_abs_Q>
1

> <s_lp_Force_Field>
OPLS3

> <r_lp_Energy>
59.0512

> <b_lp_Chiralities_Consistent>
1

> <s_lp_Variant>
ligprep_COVID_compounds-withfrags-smallmolecules-forvalidation.maegz:6-10

> <i_glide_original_lignum>
62

> <s_i_glide_gridfile>
glide-grid_5RGK_M-PRO_COVID

> <i_i_glide_lignum>
62

> <r_i_docking_score>
-2.95366067061978

> <r_i_glide_ligand_efficiency>
-0.08950486880666

> <r_i_glide_ligand_efficiency_sa>
-0.287089939064531

> <r_i_glide_ligand_efficiency_ln>
-0.656878839909363

> <r_glide_XP_GScore>
-3.27515767061978

> <r_i_glide_gscore>
-3.27515767061978

> <r_i_glide_evdw>
-21.5188064575195

> <r_i_glide_ecoul>
-6.87503814697266

> <r_i_glide_energy>
-28.3938446044922

> <r_i_glide_einternal>
0.0

> <r_i_glide_emodel>
-31.747014578526

> <r_glide_XP_HBond>
-1.27959930010947

> <i_i_glide_confnum>
1

> <i_i_glide_posenum>
2

> <r_i_glide_eff_state_penalty>
0.321497

> <i_glide_XP_PoseRank>
1

> <r_lp_tautomer_probability>


> <s_epik_Chemistry_Notes>


> <MW>


> <cLogP>


> <TPSA>


> <Rotatable Bonds>


> <Fraction sp3>


> <HBA>


> <HBD>


> <Structure ID>


> <Submission Fragments>


$$$$
ligprep_COVID_compounds-withfrags-smallmolecules-forvalidation.maegz:74
                    3D
 Structure written by MMmdl.
 50 53  0  0  1  0            999 V2000
    0.3591    1.7293   27.7939 C   0  0  0  0  0  0
    1.0291    2.6340   26.9300 O   0  0  0  0  0  0
    1.8108    2.1104   25.9224 C   0  0  0  0  0  0
    1.9830    0.7228   25.6886 C   0  0  0  0  0  0
    2.8107    0.2767   24.6401 C   0  0  0  0  0  0
    3.4746    1.1959   23.7980 C   0  0  0  0  0  0
    4.3849    0.6814   22.6791 C   0  0  1  0  0  0
    4.3723    1.5822   21.4111 C   0  0  0  0  0  0
    5.1317    1.0494   20.2155 C   0  0  0  0  0  0
    4.9501    1.4325   18.8526 C   0  0  0  0  0  0
    5.8399    0.8862   18.0341 N   0  0  0  0  0  0
    6.6138    0.1464   18.8518 N   0  0  0  0  0  0
    7.7517   -0.5548   18.3306 C   0  0  0  0  0  0
    6.2000    0.1991   20.1553 C   0  0  0  0  0  0
    5.7902    0.4773   23.2657 C   0  0  0  0  0  0
    6.5542    1.4345   23.3717 O   0  0  0  0  0  0
    6.1040   -0.7825   23.6238 N   0  0  0  0  0  0
    7.3626   -1.2656   24.0636 C   0  0  0  0  0  0
    8.5389   -0.5712   24.1883 C   0  0  0  0  0  0
    9.5191   -1.4739   24.5708 N   0  0  0  0  0  0
    8.9926   -2.7471   24.7244 C   0  0  0  0  0  0
    9.5733   -3.9755   25.0932 C   0  0  0  0  0  0
    8.7623   -5.1199   25.2096 C   0  0  0  0  0  0
    7.3834   -5.0274   24.9384 C   0  0  0  0  0  0
    6.8143   -3.8021   24.5328 C   0  0  0  0  0  0
    7.6042   -2.6335   24.4244 C   0  0  0  0  0  0
    3.3067    2.5789   24.0400 C   0  0  0  0  0  0
    2.4806    3.0263   25.0902 C   0  0  0  0  0  0
   -0.1854    2.2917   28.5520 H   0  0  0  0  0  0
    1.0618    1.0754   28.3113 H   0  0  0  0  0  0
   -0.3630    1.1213   27.2457 H   0  0  0  0  0  0
    1.5006   -0.0197   26.3045 H   0  0  0  0  0  0
    2.9459   -0.7849   24.5047 H   0  0  0  0  0  0
    4.0039   -0.2908   22.3718 H   0  0  0  0  0  0
    3.3344    1.7600   21.1271 H   0  0  0  0  0  0
    4.7724    2.5639   21.6591 H   0  0  0  0  0  0
    4.2224    2.1199   18.4402 H   0  0  0  0  0  0
    8.3426   -0.9615   19.1485 H   0  0  0  0  0  0
    8.3754    0.1354   17.7712 H   0  0  0  0  0  0
    7.4014   -1.3634   17.6984 H   0  0  0  0  0  0
    6.7439   -0.3366   20.9161 H   0  0  0  0  0  0
    5.3837   -1.4851   23.5000 H   0  0  0  0  0  0
    8.7619    0.4708   24.0159 H   0  0  0  0  0  0
   10.4768   -1.2066   24.7393 H   0  0  0  0  0  0
   10.6312   -4.0517   25.2995 H   0  0  0  0  0  0
    9.1929   -6.0638   25.5120 H   0  0  0  0  0  0
    6.7555   -5.8974   25.0417 H   0  0  0  0  0  0
    5.7566   -3.7546   24.3185 H   0  0  0  0  0  0
    3.8149    3.3181   23.4376 H   0  0  0  0  0  0
    2.3652    4.0882   25.2608 H   0  0  0  0  0  0
  1  2  1  0  0  0
  1 29  1  0  0  0
  1 30  1  0  0  0
  1 31  1  0  0  0
  2  3  1  0  0  0
  3  4  2  0  0  0
  3 28  1  0  0  0
  4  5  1  0  0  0
  4 32  1  0  0  0
  5  6  2  0  0  0
  5 33  1  0  0  0
  6  7  1  0  0  0
  6 27  1  0  0  0
  7  8  1  0  0  0
  7 15  1  0  0  0
  7 34  1  0  0  0
  8  9  1  0  0  0
  8 35  1  0  0  0
  8 36  1  0  0  0
  9 10  1  0  0  0
  9 14  2  0  0  0
 10 11  2  0  0  0
 10 37  1  0  0  0
 11 12  1  0  0  0
 12 13  1  0  0  0
 12 14  1  0  0  0
 13 38  1  0  0  0
 13 39  1  0  0  0
 13 40  1  0  0  0
 14 41  1  0  0  0
 15 16  2  0  0  0
 15 17  1  0  0  0
 17 18  1  0  0  0
 17 42  1  0  0  0
 18 19  2  0  0  0
 18 26  1  0  0  0
 19 20  1  0  0  0
 19 43  1  0  0  0
 20 21  1  0  0  0
 20 44  1  0  0  0
 21 22  2  0  0  0
 21 26  1  0  0  0
 22 23  1  0  0  0
 22 45  1  0  0  0
 23 24  2  0  0  0
 23 46  1  0  0  0
 24 25  1  0  0  0
 24 47  1  0  0  0
 25 26  2  0  0  0
 25 48  1  0  0  0
 27 28  2  0  0  0
 27 49  1  0  0  0
 28 50  1  0  0  0
M  END
> <s_m_entry_id>
3246

> <s_m_entry_name>
Compounds-withfrags-for-validation-docking.1843

> <s_m_Source_Path>
/home/rodolpho/data/melina/maestro/glide-dock_XP_5RGK_M-PRO_VALIDATION

> <s_m_Source_File>
glide-dock_XP_5RGK_M-PRO_VALIDATION_pv.maegz

> <i_m_Source_File_Index>
3246

> <CID>
ALP-POS-a3de0cb1-14

> <Potency>
99.5

> <pIC50>
4.00218

> <Source>
Postera

> <smiles>
COc1ccc(C(Cc2cnn(C)c2)C(=O)Nc2c[nH]c3ccccc23)cc1

> <Outcome>
Inactive

> <StandardizerResult>
Clear Stereo (ID: ClearStereo)
Wedge Clean (ID: WedgeClean)
Mesomerize (ID: Mesomerize)
Tautomerize (ID: Tautomerize)
Aromatize (ID: Aromatize)
Add Explicit Hydrogens (ID: AddExplicitH)
Neutralize (ID: Neutralize)
Clean 2D (ID: Clean2D)

> <chiral flag>
0

> <version>
0

> <i_lp_mmshare_version>
41011

> <i_f3d_flags>
0

> <s_epik_input>
W0NIM11PYzFbY0hdW2NIXWMoW2NIXVtjSF0xKVtDQEBIXShbQ0gyXWMyW2NIXW5uKFtDSDNdKVtjSF0yKUMoPU8pW05IXWMoW2NIXVtuSF0zKWMoYzM0KVtjSF1bY0hdW2NIXVtjSF00

> <s_epik_cmdline>
J2VwaWtfcHl0aG9uJywgJy1waHQnLCAnMC41JywgJy1waCcsICc3LjQnLCAnLXRuJywgJzgnLCAnLW1hJywgJzIwMCcsICctaW1hZScsICc8aW5maWxlLm1hZT4nLCAnLW9tYWUnLCAnPG91dGZpbGUubWFlPic=

> <r_lp_tautomer_probability>
1.0

> <r_epik_Ionization_Penalty>
1.0E-4

> <r_epik_Ionization_Penalty_Charging>
0.0

> <r_epik_Ionization_Penalty_Neutral>
1.0E-4

> <r_epik_State_Penalty>
0.0

> <r_epik_Charging_Adjusted_Penalty>
0.0

> <i_epik_Tot_Q>
0

> <i_epik_Tot_abs_Q>
0

> <s_lp_Force_Field>
OPLS3

> <r_lp_Energy>
33.6481

> <b_lp_Chiralities_Consistent>
1

> <s_lp_Variant>
ligprep_COVID_compounds-withfrags-smallmolecules-forvalidation.maegz:74-1

> <i_glide_original_lignum>
248

> <s_i_glide_gridfile>
glide-grid_5RGK_M-PRO_COVID

> <i_i_glide_lignum>
248

> <r_i_docking_score>
-2.9440979558299

> <r_i_glide_ligand_efficiency>
-0.105146355565353

> <r_i_glide_ligand_efficiency_sa>
-0.319286263388027

> <r_i_glide_ligand_efficiency_ln>
-0.679584250677684

> <r_glide_XP_GScore>
-2.9440979558299

> <r_i_glide_gscore>
-2.9440979558299

> <r_i_glide_evdw>
-32.2056999206543

> <r_i_glide_ecoul>
-5.47492742538452

> <r_i_glide_energy>
-37.6806273460388

> <r_i_glide_einternal>
1.86460387706757

> <r_i_glide_emodel>
-46.2624659252022

> <r_glide_XP_HBond>
-0.35

> <i_i_glide_confnum>
1

> <i_i_glide_posenum>
7

> <r_i_glide_eff_state_penalty>
0.0

> <i_glide_XP_PoseRank>
1

> <MW>
374.17

> <cLogP>
3.88

> <TPSA>
71.94

> <Rotatable Bonds>
6

> <Fraction sp3>
0.18

> <HBA>
4

> <HBD>
2

> <s_epik_Chemistry_Notes>


> <Structure ID>


> <Submission Fragments>


$$$$
ligprep_COVID_compounds-withfrags-smallmolecules-forvalidation.maegz:6
                    3D
 Structure written by MMmdl.
 57 60  0  0  1  0            999 V2000
    2.6967    0.0721   27.9569 C   0  0  0  0  0  0
    2.2437   -1.4074   28.0910 C   0  0  1  0  0  0
    0.7268   -1.6003   27.8894 C   0  0  0  0  0  0
   -0.1855   -0.5311   27.9140 C   0  0  0  0  0  0
   -1.5490   -0.7301   27.7454 C   0  0  0  0  0  0
   -2.0372   -2.0117   27.5463 C   0  0  0  0  0  0
   -1.1659   -3.0972   27.5135 C   0  0  0  0  0  0
   -1.7330   -4.3293   27.2924 O   0  0  0  0  0  0
    0.2287   -2.9102   27.6761 C   0  0  0  0  0  0
    1.1734   -4.0908   27.6928 C   0  0  0  0  0  0
    0.7868   -5.1979   28.0742 O   0  0  0  0  0  0
    2.5331   -3.8092   27.1366 C   0  0  0  0  0  0
    2.9576   -2.3188   27.0267 C   0  0  2  0  0  0
    4.5110   -2.1929   26.9294 C   0  0  2  0  0  0
    5.0450   -3.1428   25.8272 C   0  0  1  0  0  0
    6.4685   -2.8281   25.2720 C   0  0  1  0  0  0
    7.4903   -2.7555   26.4547 N   0  3  0  0  0  0
    8.3735   -3.9932   26.7345 C   0  0  0  0  0  0
    8.3649   -1.4875   26.3884 C   0  0  0  0  0  0
    6.8344   -3.8559   24.1857 C   0  0  0  0  0  0
    7.8161   -3.3890   23.4861 O   0  5  0  0  0  0
    6.2071   -5.0549   23.9583 C   0  0  0  0  0  0
    6.6496   -5.9261   22.8645 C   0  0  0  0  0  0
    7.9708   -5.9802   22.6568 N   0  0  0  0  0  0
    5.8730   -6.5614   22.1526 O   0  0  0  0  0  0
    5.0455   -5.4570   24.8181 C   0  0  0  0  0  0
    4.3104   -6.3904   24.4817 O   0  0  0  0  0  0
    4.7912   -4.6540   26.1403 C   0  0  2  0  0  0
    3.3635   -4.8259   26.7480 C   0  0  0  0  0  0
    3.0752   -6.1541   26.9134 O   0  0  0  0  0  0
    5.7235   -5.1428   27.0936 O   0  0  0  0  0  0
    5.1565   -2.3867   28.1772 O   0  0  0  0  0  0
    2.6113   -1.7661   29.4140 O   0  0  0  0  0  0
    2.4636    0.4724   26.9694 H   0  0  0  0  0  0
    3.7693    0.1917   28.1112 H   0  0  0  0  0  0
    2.2225    0.7163   28.6984 H   0  0  0  0  0  0
    0.1460    0.4828   28.0722 H   0  0  0  0  0  0
   -2.2267    0.1104   27.7714 H   0  0  0  0  0  0
   -3.0998   -2.1587   27.4152 H   0  0  0  0  0  0
   -1.8974   -4.8155   28.1033 H   0  0  0  0  0  0
    2.5779   -1.9896   26.0561 H   0  0  0  0  0  0
    4.7574   -1.1748   26.6283 H   0  0  0  0  0  0
    4.4031   -2.9123   24.9708 H   0  0  0  0  0  0
    6.4295   -1.8285   24.8293 H   0  0  0  0  0  0
    9.1080   -4.0754   25.9326 H   0  0  0  0  0  0
    7.7297   -4.8706   26.7817 H   0  0  0  0  0  0
    8.8576   -3.8228   27.6964 H   0  0  0  0  0  0
    8.9945   -1.5709   25.5008 H   0  0  0  0  0  0
    8.9567   -1.4494   27.3035 H   0  0  0  0  0  0
    7.6926   -0.6311   26.3276 H   0  0  0  0  0  0
    8.6031   -5.4753   23.2595 H   0  0  0  0  0  0
    8.3409   -6.5508   21.9111 H   0  0  0  0  0  0
    3.8557   -6.6795   26.7220 H   0  0  0  0  0  0
    5.5730   -6.0839   27.2115 H   0  0  0  0  0  0
    4.5976   -2.0206   28.8672 H   0  0  0  0  0  0
    3.0138   -2.6373   29.3915 H   0  0  0  0  0  0
    6.9136   -2.6486   27.2785 H   0  0  0  0  0  0
  1  2  1  0  0  0
  1 34  1  0  0  0
  1 35  1  0  0  0
  1 36  1  0  0  0
  2  3  1  0  0  0
  2 33  1  0  0  0
  2 13  1  0  0  0
  3  4  2  0  0  0
  3  9  1  0  0  0
  4  5  1  0  0  0
  4 37  1  0  0  0
  5  6  2  0  0  0
  5 38  1  0  0  0
  6  7  1  0  0  0
  6 39  1  0  0  0
  7  8  1  0  0  0
  7  9  2  0  0  0
  8 40  1  0  0  0
  9 10  1  0  0  0
 10 11  2  0  0  0
 10 12  1  0  0  0
 12 13  1  0  0  0
 12 29  2  0  0  0
 13 14  1  0  0  0
 13 41  1  0  0  0
 14 15  1  0  0  0
 14 32  1  0  0  0
 14 42  1  0  0  0
 15 16  1  0  0  0
 15 28  1  0  0  0
 15 43  1  0  0  0
 16 17  1  0  0  0
 16 20  1  0  0  0
 16 44  1  0  0  0
 17 18  1  0  0  0
 17 19  1  0  0  0
 17 57  1  0  0  0
 18 45  1  0  0  0
 18 46  1  0  0  0
 18 47  1  0  0  0
 19 48  1  0  0  0
 19 49  1  0  0  0
 19 50  1  0  0  0
 20 21  1  0  0  0
 20 22  2  0  0  0
 22 23  1  0  0  0
 22 26  1  0  0  0
 23 24  1  0  0  0
 23 25  2  0  0  0
 24 51  1  0  0  0
 24 52  1  0  0  0
 26 27  2  0  0  0
 26 28  1  0  0  0
 28 29  1  0  0  0
 28 31  1  0  0  0
 29 30  1  0  0  0
 30 53  1  0  0  0
 31 54  1  0  0  0
 32 55  1  0  0  0
 33 56  1  0  0  0
M  CHG  2  17   1  21  -1
M  END
> <s_m_entry_id>
3252

> <s_m_entry_name>
Compounds-withfrags-for-validation-docking.1911

> <s_m_Source_Path>
/home/rodolpho/data/melina/maestro/glide-dock_XP_5RGK_M-PRO_VALIDATION

> <s_m_Source_File>
glide-dock_XP_5RGK_M-PRO_VALIDATION_pv.maegz

> <i_m_Source_File_Index>
3252

> <CID>
Oxitetracyclin

> <Potency>
15.15

> <pIC50>
4.81959

> <Source>
https://doi.org/10.1101/2020.03.23.004580

> <smiles>
C(C1(C2=C(C(=C(C(O[H])=C2C(O[H])=C2C1(C(C1(C(N(C([H])([H])[H])C([H])([H])[H])([H])C(=O)C(=C(N([H])[H])O[H])C(=O)C1(C2=O)O[H])[H])(O[H])[H])[H])[H])[H])[H])O[H])([H])([H])[H]

> <Outcome>
Inactive

> <StandardizerResult>
Clear Stereo (ID: ClearStereo)
Wedge Clean (ID: WedgeClean)
Mesomerize (ID: Mesomerize)
Tautomerize (ID: Tautomerize)
Aromatize (ID: Aromatize)
Add Explicit Hydrogens (ID: AddExplicitH)
Neutralize (ID: Neutralize)
Clean 2D (ID: Clean2D)

> <chiral flag>
0

> <version>
0

> <i_lp_mmshare_version>
41011

> <i_f3d_flags>
0

> <s_epik_input>
W09IXWMxW2NIXVtjSF1bY0hdYyhbQ0BAXTIoW0NIM10pW09IXSljMUMoPU8pQyg9QzNbT0hdKVtDQEBIXTJbQ0BASF0oW09IXSlbQ0BIXShbQ0BAXTM0W09IXSlbQ0BASF0oTihbQ0gzXSlbQ0gzXSlDKD1PKVtDQEhdKEM0PU8pQyg9TylbTkgyXQ==

> <s_epik_cmdline>
J2VwaWtfcHl0aG9uJywgJy1waHQnLCAnMC41JywgJy1waCcsICc3LjQnLCAnLXRuJywgJzgnLCAnLW1hJywgJzIwMCcsICctaW1hZScsICc8aW5maWxlLm1hZT4nLCAnLW9tYWUnLCAnPG91dGZpbGUubWFlPic=

> <r_epik_Ionization_Penalty>
0.6144

> <r_epik_Ionization_Penalty_Charging>
0.5087

> <r_epik_Ionization_Penalty_Neutral>
0.1057

> <r_epik_State_Penalty>
0.5157

> <r_epik_Charging_Adjusted_Penalty>
1.02439

> <i_epik_Tot_Q>
0

> <i_epik_Tot_abs_Q>
2

> <s_lp_Force_Field>
OPLS3

> <r_lp_Energy>
55.2605

> <b_lp_Chiralities_Consistent>
1

> <s_lp_Variant>
ligprep_COVID_compounds-withfrags-smallmolecules-forvalidation.maegz:6-25

> <i_glide_original_lignum>
77

> <s_i_glide_gridfile>
glide-grid_5RGK_M-PRO_COVID

> <i_i_glide_lignum>
77

> <r_i_docking_score>
-2.93915536581893

> <r_i_glide_ligand_efficiency>
-0.0890653141157252

> <r_i_glide_ligand_efficiency_sa>
-0.28568005230509

> <r_i_glide_ligand_efficiency_ln>
-0.653652935226103

> <r_glide_XP_GScore>
-3.45486236581893

> <r_i_glide_gscore>
-3.45486236581893

> <r_i_glide_evdw>
-18.2504863739014

> <r_i_glide_ecoul>
-5.67306518554688

> <r_i_glide_energy>
-23.9235515594482

> <r_i_glide_einternal>
0.0

> <r_i_glide_emodel>
-28.6016345781065

> <r_glide_XP_HBond>
-2.11318018809027

> <i_i_glide_confnum>
1

> <i_i_glide_posenum>
10

> <r_i_glide_eff_state_penalty>
0.515707

> <i_glide_XP_PoseRank>
1

> <r_lp_tautomer_probability>


> <s_epik_Chemistry_Notes>


> <MW>


> <cLogP>


> <TPSA>


> <Rotatable Bonds>


> <Fraction sp3>


> <HBA>


> <HBD>


> <Structure ID>


> <Submission Fragments>


$$$$
ligprep_COVID_compounds-withfrags-smallmolecules-forvalidation.maegz:6
                    3D
 Structure written by MMmdl.
 57 60  0  0  1  0            999 V2000
   -2.4232    4.4851   19.1811 C   0  0  0  0  0  0
   -2.2518    3.9884   20.6371 C   0  0  1  0  0  0
   -2.5064    2.4621   20.6731 C   0  0  0  0  0  0
   -3.8225    1.9831   20.5596 C   0  0  0  0  0  0
   -4.1203    0.6296   20.5963 C   0  0  0  0  0  0
   -3.0964   -0.2896   20.7458 C   0  0  0  0  0  0
   -1.7758    0.1387   20.8526 C   0  0  0  0  0  0
   -0.8380   -0.8575   20.9813 O   0  0  0  0  0  0
   -1.4482    1.5204   20.8136 C   0  0  0  0  0  0
   -0.0039    1.9712   20.9296 C   0  0  0  0  0  0
    0.9166    1.1996   21.2073 O   0  0  0  0  0  0
    0.2113    3.4021   20.6431 C   0  0  0  0  0  0
   -0.8443    4.3300   21.2567 C   0  0  1  0  0  0
   -0.3313    5.8121   21.2771 C   0  0  1  0  0  0
    0.4095    6.2371   19.9766 C   0  0  1  0  0  0
    0.6989    7.7687   19.8113 C   0  0  1  0  0  0
    1.4264    8.3229   21.0849 N   0  3  0  0  0  0
    1.2717    7.5315   22.4074 C   0  0  0  0  0  0
    2.9301    8.5713   20.8383 C   0  0  0  0  0  0
    1.4648    8.0177   18.4997 C   0  0  0  0  0  0
    1.3770    9.2716   18.1976 O   0  5  0  0  0  0
    2.1126    7.0716   17.7475 C   0  0  0  0  0  0
    2.7922    7.4501   16.5040 C   0  0  0  0  0  0
    3.9834    6.8780   16.2910 N   0  0  0  0  0  0
    2.3294    8.2593   15.7012 O   0  0  0  0  0  0
    2.0981    5.6406   18.1928 C   0  0  0  0  0  0
    2.4196    4.7413   17.4103 O   0  0  0  0  0  0
    1.6470    5.3282   19.6627 C   0  0  2  0  0  0
    1.2974    3.8381   19.9449 C   0  0  0  0  0  0
    2.2873    3.0047   19.4966 O   0  0  0  0  0  0
    2.7400    5.6490   20.5069 O   0  0  0  0  0  0
   -1.3436    6.7230   21.6587 O   0  0  0  0  0  0
   -3.2515    4.6788   21.3730 O   0  0  0  0  0  0
   -1.6316    4.1072   18.5331 H   0  0  0  0  0  0
   -2.4233    5.5732   19.1130 H   0  0  0  0  0  0
   -3.3700    4.1552   18.7509 H   0  0  0  0  0  0
   -4.6402    2.6792   20.4396 H   0  0  0  0  0  0
   -5.1436    0.2949   20.5087 H   0  0  0  0  0  0
   -3.3343   -1.3434   20.7732 H   0  0  0  0  0  0
   -1.2142   -1.7373   20.9070 H   0  0  0  0  0  0
   -0.9182    4.0585   22.3139 H   0  0  0  0  0  0
    0.3972    5.8892   22.0861 H   0  0  0  0  0  0
   -0.3028    6.0373   19.1779 H   0  0  0  0  0  0
   -0.2699    8.2740   19.7624 H   0  0  0  0  0  0
    1.8749    6.6255   22.3345 H   0  0  0  0  0  0
    0.2228    7.2875   22.5611 H   0  0  0  0  0  0
    1.6343    8.1800   23.2055 H   0  0  0  0  0  0
    3.3965    7.6014   20.6566 H   0  0  0  0  0  0
    3.3344    9.0508   21.7305 H   0  0  0  0  0  0
    3.0318    9.2260   19.9748 H   0  0  0  0  0  0
    4.3443    6.1959   16.9411 H   0  0  0  0  0  0
    4.5122    7.1065   15.4621 H   0  0  0  0  0  0
    3.0872    3.5118   19.3381 H   0  0  0  0  0  0
    3.5046    5.1446   20.2185 H   0  0  0  0  0  0
   -1.9085    6.2962   22.3081 H   0  0  0  0  0  0
   -3.2014    5.6118   21.1517 H   0  0  0  0  0  0
    1.0088    9.2276   21.2536 H   0  0  0  0  0  0
  1  2  1  0  0  0
  1 34  1  0  0  0
  1 35  1  0  0  0
  1 36  1  0  0  0
  2  3  1  0  0  0
  2 33  1  0  0  0
  2 13  1  0  0  0
  3  4  2  0  0  0
  3  9  1  0  0  0
  4  5  1  0  0  0
  4 37  1  0  0  0
  5  6  2  0  0  0
  5 38  1  0  0  0
  6  7  1  0  0  0
  6 39  1  0  0  0
  7  8  1  0  0  0
  7  9  2  0  0  0
  8 40  1  0  0  0
  9 10  1  0  0  0
 10 11  2  0  0  0
 10 12  1  0  0  0
 12 13  1  0  0  0
 12 29  2  0  0  0
 13 14  1  0  0  0
 13 41  1  0  0  0
 14 15  1  0  0  0
 14 32  1  0  0  0
 14 42  1  0  0  0
 15 16  1  0  0  0
 15 28  1  0  0  0
 15 43  1  0  0  0
 16 17  1  0  0  0
 16 20  1  0  0  0
 16 44  1  0  0  0
 17 18  1  0  0  0
 17 19  1  0  0  0
 17 57  1  0  0  0
 18 45  1  0  0  0
 18 46  1  0  0  0
 18 47  1  0  0  0
 19 48  1  0  0  0
 19 49  1  0  0  0
 19 50  1  0  0  0
 20 21  1  0  0  0
 20 22  2  0  0  0
 22 23  1  0  0  0
 22 26  1  0  0  0
 23 24  1  0  0  0
 23 25  2  0  0  0
 24 51  1  0  0  0
 24 52  1  0  0  0
 26 27  2  0  0  0
 26 28  1  0  0  0
 28 29  1  0  0  0
 28 31  1  0  0  0
 29 30  1  0  0  0
 30 53  1  0  0  0
 31 54  1  0  0  0
 32 55  1  0  0  0
 33 56  1  0  0  0
M  CHG  2  17   1  21  -1
M  END
> <s_m_entry_id>
3258

> <s_m_entry_name>
Compounds-withfrags-for-validation-docking.1911

> <s_m_Source_Path>
/home/rodolpho/data/melina/maestro/glide-dock_XP_5RGK_M-PRO_VALIDATION

> <s_m_Source_File>
glide-dock_XP_5RGK_M-PRO_VALIDATION_pv.maegz

> <i_m_Source_File_Index>
3258

> <CID>
Oxitetracyclin

> <Potency>
15.15

> <pIC50>
4.81959

> <Source>
https://doi.org/10.1101/2020.03.23.004580

> <smiles>
C(C1(C2=C(C(=C(C(O[H])=C2C(O[H])=C2C1(C(C1(C(N(C([H])([H])[H])C([H])([H])[H])([H])C(=O)C(=C(N([H])[H])O[H])C(=O)C1(C2=O)O[H])[H])(O[H])[H])[H])[H])[H])[H])O[H])([H])([H])[H]

> <Outcome>
Inactive

> <StandardizerResult>
Clear Stereo (ID: ClearStereo)
Wedge Clean (ID: WedgeClean)
Mesomerize (ID: Mesomerize)
Tautomerize (ID: Tautomerize)
Aromatize (ID: Aromatize)
Add Explicit Hydrogens (ID: AddExplicitH)
Neutralize (ID: Neutralize)
Clean 2D (ID: Clean2D)

> <chiral flag>
0

> <version>
0

> <i_lp_mmshare_version>
41011

> <i_f3d_flags>
0

> <s_epik_input>
W09IXWMxW2NIXVtjSF1bY0hdYyhbQ0BAXTIoW0NIM10pW09IXSljMUMoPU8pQyg9QzNbT0hdKVtDQEhdMltDQEhdKFtPSF0pW0NASF0oW0NAQF0zNFtPSF0pW0NAQEhdKE4oW0NIM10pW0NIM10pQyg9TylbQ0BIXShDND1PKUMoPU8pW05IMl0=

> <s_epik_cmdline>
J2VwaWtfcHl0aG9uJywgJy1waHQnLCAnMC41JywgJy1waCcsICc3LjQnLCAnLXRuJywgJzgnLCAnLW1hJywgJzIwMCcsICctaW1hZScsICc8aW5maWxlLm1hZT4nLCAnLW9tYWUnLCAnPG91dGZpbGUubWFlPic=

> <r_epik_Ionization_Penalty>
0.6144

> <r_epik_Ionization_Penalty_Charging>
0.5087

> <r_epik_Ionization_Penalty_Neutral>
0.1057

> <r_epik_State_Penalty>
0.5157

> <r_epik_Charging_Adjusted_Penalty>
1.02439

> <i_epik_Tot_Q>
0

> <i_epik_Tot_abs_Q>
2

> <s_lp_Force_Field>
OPLS3

> <r_lp_Energy>
57.0377

> <b_lp_Chiralities_Consistent>
1

> <s_lp_Variant>
ligprep_COVID_compounds-withfrags-smallmolecules-forvalidation.maegz:6-31

> <i_glide_original_lignum>
83

> <s_i_glide_gridfile>
glide-grid_5RGK_M-PRO_COVID

> <i_i_glide_lignum>
83

> <r_i_docking_score>
-2.93073298384493

> <r_i_glide_ligand_efficiency>
-0.0888100904195432

> <r_i_glide_ligand_efficiency_sa>
-0.284861413538712

> <r_i_glide_ligand_efficiency_ln>
-0.651779841083844

> <r_glide_XP_GScore>
-3.44643998384493

> <r_i_glide_gscore>
-3.44643998384493

> <r_i_glide_evdw>
-11.4998426437378

> <r_i_glide_ecoul>
-13.7262659072876

> <r_i_glide_energy>
-25.2261085510254

> <r_i_glide_einternal>
4.93112421035767

> <r_i_glide_emodel>
-28.5486269827851

> <r_glide_XP_HBond>
-2.32917810938346

> <i_i_glide_confnum>
1

> <i_i_glide_posenum>
5

> <r_i_glide_eff_state_penalty>
0.515707

> <i_glide_XP_PoseRank>
1

> <r_lp_tautomer_probability>


> <s_epik_Chemistry_Notes>


> <MW>


> <cLogP>


> <TPSA>


> <Rotatable Bonds>


> <Fraction sp3>


> <HBA>


> <HBD>


> <Structure ID>


> <Submission Fragments>


$$$$
ligprep_COVID_compounds-withfrags-smallmolecules-forvalidation.maegz:22
                    3D
 Structure written by MMmdl.
 71 75  0  0  1  0            999 V2000
   11.2693    7.6349   28.6688 C   0  0  0  0  0  0
   10.8235    8.1985   27.3023 C   0  0  0  0  0  0
    9.7193    9.2524   27.5166 C   0  0  0  0  0  0
   12.0468    8.9073   26.6785 C   0  0  0  0  0  0
   10.2715    7.0633   26.4209 C   0  0  0  0  0  0
   10.7839    6.7820   25.1330 C   0  0  0  0  0  0
   10.2518    5.7429   24.3478 C   0  0  0  0  0  0
    9.2570    4.8908   24.8726 C   0  0  0  0  0  0
    8.8512    3.7103   24.1769 N   0  0  0  0  0  0
    9.6110    2.6284   24.4751 C   0  0  0  0  0  0
    9.3146    1.8381   25.3707 O   0  0  0  0  0  0
   10.9077    2.4434   23.7736 C   0  0  0  0  0  0
   11.5420    3.1099   22.7558 C   0  0  0  0  0  0
   12.7959    2.4755   22.5663 C   0  0  0  0  0  0
   12.8112    1.4137   23.4149 C   0  0  0  0  0  0
   11.6852    1.3921   24.1704 O   0  0  0  0  0  0
    7.4690    3.6350   23.5802 C   0  0  1  0  0  0
    6.7759    2.2384   23.3711 C   0  0  0  0  0  0
    7.2494    1.1787   23.7705 O   0  0  0  0  0  0
    5.5855    2.2363   22.7615 N   0  0  0  0  0  0
    4.6421    1.1220   22.7458 C   0  0  0  0  0  0
    5.1007   -0.0659   21.8835 C   0  0  0  0  0  0
    5.2842    0.2065   20.4023 C   0  0  0  0  0  0
    4.9324    1.4361   19.8053 C   0  0  0  0  0  0
    5.1756    1.6577   18.4406 C   0  0  0  0  0  0
    5.7275    0.6403   17.6557 C   0  0  0  0  0  0
    5.9761   -0.6200   18.2204 C   0  0  0  0  0  0
    6.3758   -1.6381   17.4372 F   0  0  0  0  0  0
    5.7973   -0.8277   19.5958 C   0  0  0  0  0  0
    6.4491    4.5387   24.3056 C   0  0  0  0  0  0
    5.3995    4.1586   25.1184 C   0  0  0  0  0  0
    4.7005    5.2038   25.6416 O   0  0  0  0  0  0
    5.3074    6.3410   25.1734 C   0  0  0  0  0  0
    4.9639    7.6630   25.4959 C   0  0  0  0  0  0
    5.7429    8.7059   24.9686 C   0  0  0  0  0  0
    6.8213    8.4042   24.1140 C   0  0  0  0  0  0
    7.1173    7.0672   23.7618 C   0  0  0  0  0  0
    6.3844    5.9881   24.3161 C   0  0  0  0  0  0
    8.7489    5.1605   26.1634 C   0  0  0  0  0  0
    9.2165    6.2585   26.9051 C   0  0  0  0  0  0
   11.6830    8.4181   29.3043 H   0  0  0  0  0  0
   12.0377    6.8704   28.5503 H   0  0  0  0  0  0
   10.4456    7.1823   29.2217 H   0  0  0  0  0  0
    8.8469    8.8317   28.0176 H   0  0  0  0  0  0
    9.3803    9.6663   26.5655 H   0  0  0  0  0  0
   10.0747   10.0806   28.1302 H   0  0  0  0  0  0
   12.4349    9.6818   27.3409 H   0  0  0  0  0  0
   11.7912    9.3984   25.7413 H   0  0  0  0  0  0
   12.8639    8.2103   26.4869 H   0  0  0  0  0  0
   11.5835    7.3676   24.7077 H   0  0  0  0  0  0
   10.6493    5.5915   23.3589 H   0  0  0  0  0  0
   11.1699    3.9517   22.1953 H   0  0  0  0  0  0
   13.5728    2.7346   21.8613 H   0  0  0  0  0  0
   13.5300    0.6368   23.6256 H   0  0  0  0  0  0
    7.6020    4.0290   22.5723 H   0  0  0  0  0  0
    5.3124    3.1214   22.3246 H   0  0  0  0  0  0
    4.4870    0.7794   23.7689 H   0  0  0  0  0  0
    3.6732    1.4856   22.4026 H   0  0  0  0  0  0
    6.0330   -0.4793   22.2709 H   0  0  0  0  0  0
    4.3756   -0.8638   21.9849 H   0  0  0  0  0  0
    4.4999    2.2392   20.3782 H   0  0  0  0  0  0
    4.9334    2.6150   18.0022 H   0  0  0  0  0  0
    5.9263    0.8250   16.6124 H   0  0  0  0  0  0
    6.0264   -1.7945   20.0217 H   0  0  0  0  0  0
    5.0205    3.1960   25.4115 H   0  0  0  0  0  0
    4.1359    7.8675   26.1582 H   0  0  0  0  0  0
    5.5231    9.7319   25.2242 H   0  0  0  0  0  0
    7.4322    9.2149   23.7505 H   0  0  0  0  0  0
    7.9474    6.8563   23.1049 H   0  0  0  0  0  0
    8.0016    4.5136   26.6000 H   0  0  0  0  0  0
    8.7944    6.4314   27.8837 H   0  0  0  0  0  0
  1  2  1  0  0  0
  1 41  1  0  0  0
  1 42  1  0  0  0
  1 43  1  0  0  0
  2  3  1  0  0  0
  2  4  1  0  0  0
  2  5  1  0  0  0
  3 44  1  0  0  0
  3 45  1  0  0  0
  3 46  1  0  0  0
  4 47  1  0  0  0
  4 48  1  0  0  0
  4 49  1  0  0  0
  5  6  2  0  0  0
  5 40  1  0  0  0
  6  7  1  0  0  0
  6 50  1  0  0  0
  7  8  2  0  0  0
  7 51  1  0  0  0
  8  9  1  0  0  0
  8 39  1  0  0  0
  9 10  1  0  0  0
  9 17  1  0  0  0
 10 11  2  0  0  0
 10 12  1  0  0  0
 12 13  2  0  0  0
 12 16  1  0  0  0
 13 14  1  0  0  0
 13 52  1  0  0  0
 14 15  2  0  0  0
 14 53  1  0  0  0
 15 16  1  0  0  0
 15 54  1  0  0  0
 17 18  1  0  0  0
 17 30  1  0  0  0
 17 55  1  0  0  0
 18 19  2  0  0  0
 18 20  1  0  0  0
 20 21  1  0  0  0
 20 56  1  0  0  0
 21 22  1  0  0  0
 21 57  1  0  0  0
 21 58  1  0  0  0
 22 23  1  0  0  0
 22 59  1  0  0  0
 22 60  1  0  0  0
 23 24  2  0  0  0
 23 29  1  0  0  0
 24 25  1  0  0  0
 24 61  1  0  0  0
 25 26  2  0  0  0
 25 62  1  0  0  0
 26 27  1  0  0  0
 26 63  1  0  0  0
 27 28  1  0  0  0
 27 29  2  0  0  0
 29 64  1  0  0  0
 30 31  2  0  0  0
 30 38  1  0  0  0
 31 32  1  0  0  0
 31 65  1  0  0  0
 32 33  1  0  0  0
 33 34  2  0  0  0
 33 38  1  0  0  0
 34 35  1  0  0  0
 34 66  1  0  0  0
 35 36  2  0  0  0
 35 67  1  0  0  0
 36 37  1  0  0  0
 36 68  1  0  0  0
 37 38  2  0  0  0
 37 69  1  0  0  0
 39 40  2  0  0  0
 39 70  1  0  0  0
 40 71  1  0  0  0
M  END
> <s_m_entry_id>
3275

> <s_m_entry_name>
Compounds-withfrags-for-validation-docking.1895

> <s_m_Source_Path>
/home/rodolpho/data/melina/maestro/glide-dock_XP_5RGK_M-PRO_VALIDATION

> <s_m_Source_File>
glide-dock_XP_5RGK_M-PRO_VALIDATION_pv.maegz

> <i_m_Source_File_Index>
3275

> <CID>
ALP-POS-02c6a514-19

> <Potency>
99.5

> <pIC50>
4.00218

> <Source>
Postera

> <smiles>
CC(C)(C)c1ccc(N(C(=O)c2ccco2)C(C(=O)NCCc2cccc(F)c2)c2coc3ccccc23)cc1

> <Outcome>
Inactive

> <StandardizerResult>
Clear Stereo (ID: ClearStereo)
Wedge Clean (ID: WedgeClean)
Mesomerize (ID: Mesomerize)
Tautomerize (ID: Tautomerize)
Aromatize (ID: Aromatize)
Add Explicit Hydrogens (ID: AddExplicitH)
Neutralize (ID: Neutralize)
Clean 2D (ID: Clean2D)

> <chiral flag>
0

> <version>
0

> <i_lp_mmshare_version>
41011

> <i_f3d_flags>
0

> <s_epik_input>
W0NIM11DKFtDSDNdKShbQ0gzXSljMVtjSF1bY0hdYyhbY0hdW2NIXTEpTihDKD1PKWMyW2NIXVtjSF1bY0hdbzIpW0NASF0oYyhbY0hdbzMpYyhjMzQpW2NIXVtjSF1bY0hdW2NIXTQpQyg9TylbTkhdW0NIMl1bQ0gyXWM1W2NIXVtjSF1bY0hdYyhGKVtjSF01

> <s_epik_cmdline>
J2VwaWtfcHl0aG9uJywgJy1waHQnLCAnMC41JywgJy1waCcsICc3LjQnLCAnLXRuJywgJzgnLCAnLW1hJywgJzIwMCcsICctaW1hZScsICc8aW5maWxlLm1hZT4nLCAnLW9tYWUnLCAnPG91dGZpbGUubWFlPic=

> <r_lp_tautomer_probability>
1.0

> <r_epik_Ionization_Penalty>
0.0

> <r_epik_Ionization_Penalty_Charging>
0.0

> <r_epik_Ionization_Penalty_Neutral>
0.0

> <r_epik_State_Penalty>
0.0

> <r_epik_Charging_Adjusted_Penalty>
0.0

> <i_epik_Tot_Q>
0

> <i_epik_Tot_abs_Q>
0

> <s_lp_Force_Field>
OPLS3

> <r_lp_Energy>
72.8841

> <b_lp_Chiralities_Consistent>
1

> <s_lp_Variant>
ligprep_COVID_compounds-withfrags-smallmolecules-forvalidation.maegz:22-1

> <i_glide_original_lignum>
137

> <s_i_glide_gridfile>
glide-grid_5RGK_M-PRO_COVID

> <i_i_glide_lignum>
137

> <r_i_docking_score>
-2.91372059217393

> <r_i_glide_ligand_efficiency>
-0.0728430148043483

> <r_i_glide_ligand_efficiency_sa>
-0.249119606091376

> <r_i_glide_ligand_efficiency_ln>
-0.621410855341459

> <r_glide_XP_GScore>
-2.91372059217393

> <r_i_glide_gscore>
-2.91372059217393

> <r_i_glide_evdw>
-35.0861320495605

> <r_i_glide_ecoul>
-7.36746454238892

> <r_i_glide_energy>
-42.4535965919495

> <r_i_glide_einternal>
11.279372215271

> <r_i_glide_emodel>
-61.4760663540919

> <r_glide_XP_HBond>
-0.814144595828435

> <i_i_glide_confnum>
2

> <i_i_glide_posenum>
1

> <r_i_glide_eff_state_penalty>
0.0

> <i_glide_XP_PoseRank>
1

> <MW>
538.23

> <cLogP>
7.21

> <TPSA>
75.69

> <Rotatable Bonds>
8

> <Fraction sp3>
0.21

> <HBA>
4

> <HBD>
1

> <s_epik_Chemistry_Notes>


> <Structure ID>


> <Submission Fragments>


$$$$
ligprep_COVID_compounds-withfrags-smallmolecules-forvalidation.maegz:36
                    3D
 Structure written by MMmdl.
 69 73  0  0  1  0            999 V2000
    3.9728    0.3647   24.0576 O   0  0  0  0  0  0
    4.9858    0.5000   23.3705 C   0  0  0  0  0  0
    6.0136   -0.3579   23.3725 N   0  0  0  0  0  0
    6.2010   -1.4827   24.2711 C   0  0  0  0  0  0
    7.0137   -2.5797   23.5653 C   0  0  0  0  0  0
    7.7481   -3.5102   24.5127 C   0  0  0  0  0  0
    9.0571   -3.9286   24.1895 C   0  0  0  0  0  0
    9.7796   -4.7486   25.0744 C   0  0  0  0  0  0
    9.1955   -5.1489   26.2885 C   0  0  0  0  0  0
    7.8847   -4.7539   26.6107 C   0  0  0  0  0  0
    7.3262   -5.1403   27.7814 F   0  0  0  0  0  0
    7.1582   -3.9407   25.7211 C   0  0  0  0  0  0
    5.1986    1.7393   22.4936 C   0  0  2  0  0  0
    5.8767    2.7018   23.4581 C   0  0  0  0  0  0
    7.2757    2.9002   23.3432 C   0  0  0  0  0  0
    7.9706    3.7639   24.2086 C   0  0  0  0  0  0
    7.2394    4.4305   25.2025 C   0  0  0  0  0  0
    5.9156    4.2657   25.3656 N   0  0  0  0  0  0
    5.2737    3.4364   24.5160 C   0  0  0  0  0  0
    3.9551    2.1687   21.7655 N   0  0  0  0  0  0
    3.0236    3.0823   22.4802 C   0  0  0  0  0  0
    1.6987    3.5314   21.8386 C   0  0  0  0  0  0
    1.6576    4.7666   21.1405 C   0  0  0  0  0  0
    2.7745    5.5382   20.9740 O   0  0  0  0  0  0
    0.4598    5.2127   20.5576 C   0  0  0  0  0  0
   -0.6955    4.4192   20.6227 C   0  0  0  0  0  0
   -0.6632    3.1669   21.2652 C   0  0  0  0  0  0
    0.5310    2.7163   21.8900 C   0  0  0  0  0  0
    0.5796    1.3319   22.5422 C   0  0  0  0  0  0
   -0.7879    0.6684   22.7537 C   0  0  0  0  0  0
   -1.6846    0.8427   21.5282 C   0  0  0  0  0  0
   -1.9350    2.3303   21.2629 C   0  0  0  0  0  0
    3.7708    1.8351   20.4464 C   0  0  0  0  0  0
    2.8150    2.2048   19.7686 O   0  0  0  0  0  0
    4.7321    0.9535   19.7393 C   0  0  0  0  0  0
    5.1744    1.0048   18.4452 C   0  0  0  0  0  0
    5.9299   -0.1790   18.2258 C   0  0  0  0  0  0
    5.9362   -0.8508   19.4127 C   0  0  0  0  0  0
    5.1822   -0.1902   20.3310 O   0  0  0  0  0  0
    6.7816   -0.1525   22.7508 H   0  0  0  0  0  0
    6.7489   -1.1012   25.1336 H   0  0  0  0  0  0
    5.2513   -1.8737   24.6383 H   0  0  0  0  0  0
    6.3756   -3.1675   22.9052 H   0  0  0  0  0  0
    7.7596   -2.1133   22.9262 H   0  0  0  0  0  0
    9.5193   -3.6207   23.2636 H   0  0  0  0  0  0
   10.7820   -5.0690   24.8246 H   0  0  0  0  0  0
    9.7566   -5.7638   26.9707 H   0  0  0  0  0  0
    6.1570   -3.6386   25.9865 H   0  0  0  0  0  0
    5.9737    1.5113   21.7638 H   0  0  0  0  0  0
    7.8311    2.3904   22.5713 H   0  0  0  0  0  0
    9.0338    3.9177   24.1039 H   0  0  0  0  0  0
    7.7315    5.1043   25.8875 H   0  0  0  0  0  0
    4.2328    3.3219   24.7621 H   0  0  0  0  0  0
    2.7779    2.6466   23.4430 H   0  0  0  0  0  0
    3.5737    3.9927   22.7015 H   0  0  0  0  0  0
    3.5405    5.0366   20.6939 H   0  0  0  0  0  0
    0.4363    6.1589   20.0368 H   0  0  0  0  0  0
   -1.6048    4.7663   20.1537 H   0  0  0  0  0  0
    1.1752    0.7009   21.8839 H   0  0  0  0  0  0
    1.0897    1.3633   23.5041 H   0  0  0  0  0  0
   -0.6575   -0.3877   22.9930 H   0  0  0  0  0  0
   -1.2799    1.1222   23.6156 H   0  0  0  0  0  0
   -1.2019    0.3896   20.6595 H   0  0  0  0  0  0
   -2.6338    0.3226   21.6659 H   0  0  0  0  0  0
   -2.5986    2.7319   22.0298 H   0  0  0  0  0  0
   -2.4526    2.4494   20.3105 H   0  0  0  0  0  0
    4.9246    1.7776   17.7329 H   0  0  0  0  0  0
    6.3748   -0.5212   17.3073 H   0  0  0  0  0  0
    6.3568   -1.7888   19.7453 H   0  0  0  0  0  0
  1  2  2  0  0  0
  2  3  1  0  0  0
  2 13  1  0  0  0
  3  4  1  0  0  0
  3 40  1  0  0  0
  4  5  1  0  0  0
  4 41  1  0  0  0
  4 42  1  0  0  0
  5  6  1  0  0  0
  5 43  1  0  0  0
  5 44  1  0  0  0
  6  7  2  0  0  0
  6 12  1  0  0  0
  7  8  1  0  0  0
  7 45  1  0  0  0
  8  9  2  0  0  0
  8 46  1  0  0  0
  9 10  1  0  0  0
  9 47  1  0  0  0
 10 11  1  0  0  0
 10 12  2  0  0  0
 12 48  1  0  0  0
 13 14  1  0  0  0
 13 20  1  0  0  0
 13 49  1  0  0  0
 14 15  2  0  0  0
 14 19  1  0  0  0
 15 16  1  0  0  0
 15 50  1  0  0  0
 16 17  2  0  0  0
 16 51  1  0  0  0
 17 18  1  0  0  0
 17 52  1  0  0  0
 18 19  2  0  0  0
 19 53  1  0  0  0
 20 21  1  0  0  0
 20 33  1  0  0  0
 21 22  1  0  0  0
 21 54  1  0  0  0
 21 55  1  0  0  0
 22 23  2  0  0  0
 22 28  1  0  0  0
 23 24  1  0  0  0
 23 25  1  0  0  0
 24 56  1  0  0  0
 25 26  2  0  0  0
 25 57  1  0  0  0
 26 27  1  0  0  0
 26 58  1  0  0  0
 27 28  2  0  0  0
 27 32  1  0  0  0
 28 29  1  0  0  0
 29 30  1  0  0  0
 29 59  1  0  0  0
 29 60  1  0  0  0
 30 31  1  0  0  0
 30 61  1  0  0  0
 30 62  1  0  0  0
 31 32  1  0  0  0
 31 63  1  0  0  0
 31 64  1  0  0  0
 32 65  1  0  0  0
 32 66  1  0  0  0
 33 34  2  0  0  0
 33 35  1  0  0  0
 35 36  2  0  0  0
 35 39  1  0  0  0
 36 37  1  0  0  0
 36 67  1  0  0  0
 37 38  2  0  0  0
 37 68  1  0  0  0
 38 39  1  0  0  0
 38 69  1  0  0  0
M  END
> <s_m_entry_id>
3282

> <s_m_entry_name>
Compounds-withfrags-for-validation-docking.1881

> <s_m_Source_Path>
/home/rodolpho/data/melina/maestro/glide-dock_XP_5RGK_M-PRO_VALIDATION

> <s_m_Source_File>
glide-dock_XP_5RGK_M-PRO_VALIDATION_pv.maegz

> <i_m_Source_File_Index>
3282

> <CID>
ALP-POS-b0bc6a46-19

> <Potency>
12.0753

> <pIC50>
4.9181

> <Source>
Postera

> <smiles>
O=C(NCCc1cccc(F)c1)C(c1cccnc1)N(Cc1c(O)ccc2c1CCCC2)C(=O)c1ccco1

> <Outcome>
Inactive

> <StandardizerResult>
Clear Stereo (ID: ClearStereo)
Wedge Clean (ID: WedgeClean)
Mesomerize (ID: Mesomerize)
Tautomerize (ID: Tautomerize)
Aromatize (ID: Aromatize)
Add Explicit Hydrogens (ID: AddExplicitH)
Neutralize (ID: Neutralize)
Clean 2D (ID: Clean2D)

> <chiral flag>
0

> <version>
0

> <i_lp_mmshare_version>
41011

> <i_f3d_flags>
0

> <s_epik_input>
W0NIMl0xW0NIMl1bQ0gyXVtDSDJdYyhjMTIpYyhjKFtPSF0pW2NIXVtjSF0yKVtDSDJdTihDKD1PKWMzW2NIXVtjSF1bY0hdbzMpW0NAQEhdKGM0W2NIXVtjSF1bY0hdbltjSF00KUMoPU8pW05IXVtDSDJdW0NIMl1jNVtjSF1bY0hdW2NIXWMoRilbY0hdNQ==

> <s_epik_cmdline>
J2VwaWtfcHl0aG9uJywgJy1waHQnLCAnMC41JywgJy1waCcsICc3LjQnLCAnLXRuJywgJzgnLCAnLW1hJywgJzIwMCcsICctaW1hZScsICc8aW5maWxlLm1hZT4nLCAnLW9tYWUnLCAnPG91dGZpbGUubWFlPic=

> <r_lp_tautomer_probability>
1.0

> <r_epik_Ionization_Penalty>
0.0012

> <r_epik_Ionization_Penalty_Charging>
0.0

> <r_epik_Ionization_Penalty_Neutral>
0.0012

> <r_epik_State_Penalty>
0.0

> <r_epik_Charging_Adjusted_Penalty>
0.0

> <i_epik_Tot_Q>
0

> <i_epik_Tot_abs_Q>
0

> <s_lp_Force_Field>
OPLS3

> <r_lp_Energy>
64.576

> <b_lp_Chiralities_Consistent>
1

> <s_lp_Variant>
ligprep_COVID_compounds-withfrags-smallmolecules-forvalidation.maegz:36-2

> <i_glide_original_lignum>
176

> <s_i_glide_gridfile>
glide-grid_5RGK_M-PRO_COVID

> <i_i_glide_lignum>
176

> <r_i_docking_score>
-2.9083463577212

> <r_i_glide_ligand_efficiency>
-0.0745729835313127

> <r_i_glide_ligand_efficiency_sa>
-0.252892754782265

> <r_i_glide_ligand_efficiency_ln>
-0.623632017416318

> <r_glide_XP_GScore>
-2.9083463577212

> <r_i_glide_gscore>
-2.9083463577212

> <r_i_glide_evdw>
-37.4835357666016

> <r_i_glide_ecoul>
-7.372483253479

> <r_i_glide_energy>
-44.8560190200806

> <r_i_glide_einternal>
9.26154708862305

> <r_i_glide_emodel>
-54.4332710016129

> <r_glide_XP_HBond>
-0.145685680446383

> <i_i_glide_confnum>
1

> <i_i_glide_posenum>
32

> <r_i_glide_eff_state_penalty>
0.0

> <i_glide_XP_PoseRank>
1

> <MW>
527.22

> <cLogP>
5.14

> <TPSA>
95.67

> <Rotatable Bonds>
9

> <Fraction sp3>
0.26

> <HBA>
5

> <HBD>
2

> <s_epik_Chemistry_Notes>


> <Structure ID>


> <Submission Fragments>


$$$$
ligprep_COVID_compounds-withfrags-smallmolecules-forvalidation.maegz:6
                    3D
 Structure written by MMmdl.
 57 60  0  0  1  0            999 V2000
   -2.3383    4.7113   19.0264 C   0  0  0  0  0  0
   -2.2173    4.2962   20.5062 C   0  0  1  0  0  0
   -2.5682    2.8084   20.6475 C   0  0  0  0  0  0
   -3.9322    2.4389   20.5769 C   0  0  0  0  0  0
   -4.3274    1.0996   20.6997 C   0  0  0  0  0  0
   -3.3577    0.1071   20.8919 C   0  0  0  0  0  0
   -1.9929    0.4444   20.9573 C   0  0  0  0  0  0
   -1.1215   -0.5953   21.1169 O   0  0  0  0  0  0
   -1.5685    1.8029   20.8354 C   0  0  0  0  0  0
   -0.1050    2.1768   20.8565 C   0  0  0  0  0  0
    0.7828    1.3574   21.0935 O   0  0  0  0  0  0
    0.2179    3.6018   20.5894 C   0  0  0  0  0  0
   -0.8229    4.5739   21.1293 C   0  0  1  0  0  0
   -0.3158    6.0447   21.1572 C   0  0  2  0  0  0
    0.5208    6.4109   19.9108 C   0  0  1  0  0  0
    0.8545    7.9186   19.7292 C   0  0  1  0  0  0
    1.5161    8.4950   20.9517 N   0  3  0  0  0  0
    0.6873    9.5204   21.6248 C   0  0  0  0  0  0
    2.9315    8.9416   20.8326 C   0  0  0  0  0  0
    1.6266    8.1988   18.4181 C   0  0  0  0  0  0
    1.5074    9.4280   18.1919 O   0  5  0  0  0  0
    2.2649    7.1546   17.7278 C   0  0  0  0  0  0
    3.0225    7.5123   16.5102 C   0  0  0  0  0  0
    3.9747    6.6401   16.1708 N   0  0  0  0  0  0
    2.8976    8.5380   15.8447 O   0  0  0  0  0  0
    2.1507    5.7337   18.1946 C   0  0  0  0  0  0
    2.3606    4.7790   17.4441 O   0  0  0  0  0  0
    1.7244    5.4711   19.6666 C   0  0  2  0  0  0
    1.3669    4.0018   19.9844 C   0  0  0  0  0  0
    2.3635    3.1573   19.6468 O   0  0  0  0  0  0
    2.7749    5.8363   20.5384 O   0  0  0  0  0  0
    0.4820    6.2224   22.3180 O   0  0  0  0  0  0
   -3.1374    5.1049   21.2161 O   0  0  0  0  0  0
   -1.5730    4.2367   18.4113 H   0  0  0  0  0  0
   -2.2571    5.7898   18.8976 H   0  0  0  0  0  0
   -3.3061    4.4288   18.6107 H   0  0  0  0  0  0
   -4.6973    3.1846   20.4219 H   0  0  0  0  0  0
   -5.3730    0.8346   20.6433 H   0  0  0  0  0  0
   -3.6708   -0.9230   20.9805 H   0  0  0  0  0  0
   -1.5396   -1.4424   21.1115 H   0  0  0  0  0  0
   -0.9438    4.2991   22.1810 H   0  0  0  0  0  0
   -1.1582    6.7307   21.2473 H   0  0  0  0  0  0
   -0.1529    6.2162   19.0788 H   0  0  0  0  0  0
   -0.1239    8.3970   19.6356 H   0  0  0  0  0  0
    0.5725   10.4013   20.9916 H   0  0  0  0  0  0
    1.1426    9.8308   22.5658 H   0  0  0  0  0  0
   -0.3049    9.1295   21.8535 H   0  0  0  0  0  0
    3.0093    9.8939   20.3078 H   0  0  0  0  0  0
    3.5596    8.2214   20.3107 H   0  0  0  0  0  0
    3.3619    9.0811   21.8243 H   0  0  0  0  0  0
    4.0649    5.7883   16.7094 H   0  0  0  0  0  0
    4.5893    6.8576   15.3960 H   0  0  0  0  0  0
    3.1159    3.6745   19.3706 H   0  0  0  0  0  0
    3.5597    5.3582   20.2595 H   0  0  0  0  0  0
    1.2433    5.6581   22.2441 H   0  0  0  0  0  0
   -3.9976    4.9808   20.8462 H   0  0  0  0  0  0
    1.5383    7.7038   21.5855 H   0  0  0  0  0  0
  1  2  1  0  0  0
  1 34  1  0  0  0
  1 35  1  0  0  0
  1 36  1  0  0  0
  2  3  1  0  0  0
  2 33  1  0  0  0
  2 13  1  0  0  0
  3  4  2  0  0  0
  3  9  1  0  0  0
  4  5  1  0  0  0
  4 37  1  0  0  0
  5  6  2  0  0  0
  5 38  1  0  0  0
  6  7  1  0  0  0
  6 39  1  0  0  0
  7  8  1  0  0  0
  7  9  2  0  0  0
  8 40  1  0  0  0
  9 10  1  0  0  0
 10 11  2  0  0  0
 10 12  1  0  0  0
 12 13  1  0  0  0
 12 29  2  0  0  0
 13 14  1  0  0  0
 13 41  1  0  0  0
 14 15  1  0  0  0
 14 32  1  0  0  0
 14 42  1  0  0  0
 15 16  1  0  0  0
 15 28  1  0  0  0
 15 43  1  0  0  0
 16 17  1  0  0  0
 16 20  1  0  0  0
 16 44  1  0  0  0
 17 18  1  0  0  0
 17 19  1  0  0  0
 17 57  1  0  0  0
 18 45  1  0  0  0
 18 46  1  0  0  0
 18 47  1  0  0  0
 19 48  1  0  0  0
 19 49  1  0  0  0
 19 50  1  0  0  0
 20 21  1  0  0  0
 20 22  2  0  0  0
 22 23  1  0  0  0
 22 26  1  0  0  0
 23 24  1  0  0  0
 23 25  2  0  0  0
 24 51  1  0  0  0
 24 52  1  0  0  0
 26 27  2  0  0  0
 26 28  1  0  0  0
 28 29  1  0  0  0
 28 31  1  0  0  0
 29 30  1  0  0  0
 30 53  1  0  0  0
 31 54  1  0  0  0
 32 55  1  0  0  0
 33 56  1  0  0  0
M  CHG  2  17   1  21  -1
M  END
> <s_m_entry_id>
3292

> <s_m_entry_name>
Compounds-withfrags-for-validation-docking.1911

> <s_m_Source_Path>
/home/rodolpho/data/melina/maestro/glide-dock_XP_5RGK_M-PRO_VALIDATION

> <s_m_Source_File>
glide-dock_XP_5RGK_M-PRO_VALIDATION_pv.maegz

> <i_m_Source_File_Index>
3292

> <CID>
Oxitetracyclin

> <Potency>
15.15

> <pIC50>
4.81959

> <Source>
https://doi.org/10.1101/2020.03.23.004580

> <smiles>
C(C1(C2=C(C(=C(C(O[H])=C2C(O[H])=C2C1(C(C1(C(N(C([H])([H])[H])C([H])([H])[H])([H])C(=O)C(=C(N([H])[H])O[H])C(=O)C1(C2=O)O[H])[H])(O[H])[H])[H])[H])[H])[H])O[H])([H])([H])[H]

> <Outcome>
Inactive

> <StandardizerResult>
Clear Stereo (ID: ClearStereo)
Wedge Clean (ID: WedgeClean)
Mesomerize (ID: Mesomerize)
Tautomerize (ID: Tautomerize)
Aromatize (ID: Aromatize)
Add Explicit Hydrogens (ID: AddExplicitH)
Neutralize (ID: Neutralize)
Clean 2D (ID: Clean2D)

> <chiral flag>
0

> <version>
0

> <i_lp_mmshare_version>
41011

> <i_f3d_flags>
0

> <s_epik_input>
W09IXWMxW2NIXVtjSF1bY0hdYyhbQ0BAXTIoW0NIM10pW09IXSljMUMoPU8pQyg9QzNbT0hdKVtDQEhdMltDQEBIXShbT0hdKVtDQEhdKFtDQEBdMzRbT0hdKVtDQEBIXShOKFtDSDNdKVtDSDNdKUMoPU8pW0NASF0oQzQ9TylDKD1PKVtOSDJd

> <s_epik_cmdline>
J2VwaWtfcHl0aG9uJywgJy1waHQnLCAnMC41JywgJy1waCcsICc3LjQnLCAnLXRuJywgJzgnLCAnLW1hJywgJzIwMCcsICctaW1hZScsICc8aW5maWxlLm1hZT4nLCAnLW9tYWUnLCAnPG91dGZpbGUubWFlPic=

> <r_epik_Ionization_Penalty>
0.6144

> <r_epik_Ionization_Penalty_Charging>
0.5087

> <r_epik_Ionization_Penalty_Neutral>
0.1057

> <r_epik_State_Penalty>
0.5157

> <r_epik_Charging_Adjusted_Penalty>
1.02439

> <i_epik_Tot_Q>
0

> <i_epik_Tot_abs_Q>
2

> <s_lp_Force_Field>
OPLS3

> <r_lp_Energy>
54.1116

> <b_lp_Chiralities_Consistent>
1

> <s_lp_Variant>
ligprep_COVID_compounds-withfrags-smallmolecules-forvalidation.maegz:6-27

> <i_glide_original_lignum>
79

> <s_i_glide_gridfile>
glide-grid_5RGK_M-PRO_COVID

> <i_i_glide_lignum>
79

> <r_i_docking_score>
-2.89597673209744

> <r_i_glide_ligand_efficiency>
-0.0877568706696195

> <r_i_glide_ligand_efficiency_sa>
-0.281483175037739

> <r_i_glide_ligand_efficiency_ln>
-0.644050230653445

> <r_glide_XP_GScore>
-3.41168373209744

> <r_i_glide_gscore>
-3.41168373209744

> <r_i_glide_evdw>
-15.0363149642944

> <r_i_glide_ecoul>
-12.5886487960815

> <r_i_glide_energy>
-27.624963760376

> <r_i_glide_einternal>
4.3490047454834

> <r_i_glide_emodel>
-28.6158989100399

> <r_glide_XP_HBond>
-2.23513572231191

> <i_i_glide_confnum>
1

> <i_i_glide_posenum>
4

> <r_i_glide_eff_state_penalty>
0.515707

> <i_glide_XP_PoseRank>
1

> <r_lp_tautomer_probability>


> <s_epik_Chemistry_Notes>


> <MW>


> <cLogP>


> <TPSA>


> <Rotatable Bonds>


> <Fraction sp3>


> <HBA>


> <HBD>


> <Structure ID>


> <Submission Fragments>


$$$$
ligprep_COVID_compounds-withfrags-smallmolecules-forvalidation.maegz:4
                    3D
 Structure written by MMmdl.
 93 97  0  0  1  0            999 V2000
    5.1425   -0.1942   22.7433 C   0  0  0  0  0  0
    5.8025    1.1492   22.3662 C   0  0  0  0  0  0
    6.8392    1.5548   23.4219 C   0  0  0  0  0  0
    6.5205    0.9712   21.0207 C   0  0  0  0  0  0
    4.7984    2.2044   22.1721 N   0  0  0  0  0  0
    3.6686    2.4315   22.8586 C   0  0  0  0  0  0
    3.4949    2.0718   24.0245 O   0  0  0  0  0  0
    2.4965    3.0480   22.0683 C   0  0  2  0  0  0
    2.0483    1.9467   21.0720 C   0  0  0  0  0  0
    0.8857    2.3112   20.2682 N   0  0  0  0  0  0
   -0.3643    2.4694   21.0157 C   0  0  0  0  0  0
   -0.8381    1.1897   21.6784 C   0  0  0  0  0  0
   -0.5154    0.9009   23.0201 C   0  0  0  0  0  0
   -0.9741   -0.3040   23.5848 C   0  0  0  0  0  0
   -1.7454   -1.1684   22.7857 C   0  0  0  0  0  0
   -2.0655   -0.8999   21.5030 N   0  0  0  0  0  0
   -1.6249    0.2589   20.9710 C   0  0  0  0  0  0
    1.2638    3.5017   19.5116 C   0  0  0  0  0  0
    1.6593    4.6766   20.4305 C   0  0  0  0  0  0
    2.7747    4.3481   21.3715 N   0  3  1  0  0  0
    3.0625    5.4406   22.3629 C   0  0  0  0  0  0
    2.8799    6.8948   21.8503 C   0  0  2  0  0  0
    3.8550    7.9178   22.4649 C   0  0  0  0  0  0
    5.2313    7.9355   21.7499 C   0  0  1  0  0  0
    5.4161    9.1214   20.7684 C   0  0  0  0  0  0
    4.2917    9.2985   19.7600 C   0  0  0  0  0  0
    3.9741    8.2721   18.8429 C   0  0  0  0  0  0
    2.9332    8.4447   17.9126 C   0  0  0  0  0  0
    2.2078    9.6502   17.8849 C   0  0  0  0  0  0
    2.5248   10.6822   18.7896 C   0  0  0  0  0  0
    3.5623   10.5046   19.7255 C   0  0  0  0  0  0
    6.3729    7.9053   22.7710 C   0  0  0  0  0  0
    6.5976    8.9029   23.4519 O   0  0  0  0  0  0
    7.0776    6.7675   22.8408 N   0  0  0  0  0  0
    8.2924    6.4748   23.6072 C   0  0  1  0  0  0
    8.2312    6.8258   25.0827 C   0  0  0  0  0  0
    8.3727    8.0950   25.6774 C   0  0  0  0  0  0
    8.2880    8.1993   27.0839 C   0  0  0  0  0  0
    8.0792    7.0466   27.8758 C   0  0  0  0  0  0
    7.9748    5.7773   27.2694 C   0  0  0  0  0  0
    8.0722    5.6919   25.8705 C   0  0  0  0  0  0
    8.0703    4.4404   25.0429 C   0  0  0  0  0  0
    8.4653    4.9293   23.6247 C   0  0  2  0  0  0
    9.8162    4.5847   23.3705 O   0  0  0  0  0  0
    1.5592    7.3097   22.1440 O   0  0  0  0  0  0
    5.8746   -1.0022   22.7634 H   0  0  0  0  0  0
    4.3750   -0.4729   22.0213 H   0  0  0  0  0  0
    4.6808   -0.1734   23.7304 H   0  0  0  0  0  0
    6.3701    1.9634   24.3096 H   0  0  0  0  0  0
    7.5163    2.3122   23.0378 H   0  0  0  0  0  0
    7.4555    0.7078   23.7234 H   0  0  0  0  0  0
    7.1761    0.1012   21.0349 H   0  0  0  0  0  0
    7.1487    1.8358   20.7997 H   0  0  0  0  0  0
    5.8173    0.8377   20.1976 H   0  0  0  0  0  0
    4.9753    2.8040   21.3706 H   0  0  0  0  0  0
    1.6927    3.2153   22.7844 H   0  0  0  0  0  0
    2.8644    1.7027   20.3893 H   0  0  0  0  0  0
    1.8344    1.0303   21.6149 H   0  0  0  0  0  0
   -0.2917    3.2507   21.7734 H   0  0  0  0  0  0
   -1.1431    2.7919   20.3227 H   0  0  0  0  0  0
    0.0783    1.5851   23.6079 H   0  0  0  0  0  0
   -0.7441   -0.5585   24.6087 H   0  0  0  0  0  0
   -2.1128   -2.1025   23.1852 H   0  0  0  0  0  0
   -1.9087    0.4476   19.9452 H   0  0  0  0  0  0
    2.0963    3.2568   18.8481 H   0  0  0  0  0  0
    0.4366    3.8018   18.8639 H   0  0  0  0  0  0
    1.9523    5.4815   19.7587 H   0  0  0  0  0  0
    0.7895    5.0299   20.9848 H   0  0  0  0  0  0
    2.4462    5.3095   23.2559 H   0  0  0  0  0  0
    4.0814    5.3150   22.7229 H   0  0  0  0  0  0
    3.0078    6.9408   20.7774 H   0  0  0  0  0  0
    3.4240    8.9184   22.4093 H   0  0  0  0  0  0
    3.9554    7.7149   23.5326 H   0  0  0  0  0  0
    5.3184    7.0370   21.1463 H   0  0  0  0  0  0
    5.5316   10.0520   21.3273 H   0  0  0  0  0  0
    6.3478    8.9938   20.2133 H   0  0  0  0  0  0
    4.5249    7.3420   18.8554 H   0  0  0  0  0  0
    2.6928    7.6532   17.2168 H   0  0  0  0  0  0
    1.4089    9.7853   17.1711 H   0  0  0  0  0  0
    1.9708   11.6088   18.7677 H   0  0  0  0  0  0
    3.7970   11.3011   20.4153 H   0  0  0  0  0  0
    6.7399    6.0041   22.2580 H   0  0  0  0  0  0
    9.1369    6.9780   23.1341 H   0  0  0  0  0  0
    8.5420    8.9755   25.0749 H   0  0  0  0  0  0
    8.3887    9.1641   27.5585 H   0  0  0  0  0  0
    8.0212    7.1317   28.9509 H   0  0  0  0  0  0
    7.8567    4.8876   27.8715 H   0  0  0  0  0  0
    8.7431    3.6847   25.4469 H   0  0  0  0  0  0
    7.0571    4.0413   25.0487 H   0  0  0  0  0  0
    7.8700    4.4408   22.8530 H   0  0  0  0  0  0
    9.9751    4.6852   22.4377 H   0  0  0  0  0  0
    1.4893    7.4852   23.0707 H   0  0  0  0  0  0
    3.6112    4.2381   20.7983 H   0  0  0  0  0  0
  1  2  1  0  0  0
  1 46  1  0  0  0
  1 47  1  0  0  0
  1 48  1  0  0  0
  2  3  1  0  0  0
  2  4  1  0  0  0
  2  5  1  0  0  0
  3 49  1  0  0  0
  3 50  1  0  0  0
  3 51  1  0  0  0
  4 52  1  0  0  0
  4 53  1  0  0  0
  4 54  1  0  0  0
  5  6  1  0  0  0
  5 55  1  0  0  0
  6  7  2  0  0  0
  6  8  1  0  0  0
  8  9  1  0  0  0
  8 20  1  0  0  0
  8 56  1  0  0  0
  9 10  1  0  0  0
  9 57  1  0  0  0
  9 58  1  0  0  0
 10 11  1  0  0  0
 10 18  1  0  0  0
 11 12  1  0  0  0
 11 59  1  0  0  0
 11 60  1  0  0  0
 12 13  2  0  0  0
 12 17  1  0  0  0
 13 14  1  0  0  0
 13 61  1  0  0  0
 14 15  2  0  0  0
 14 62  1  0  0  0
 15 16  1  0  0  0
 15 63  1  0  0  0
 16 17  2  0  0  0
 17 64  1  0  0  0
 18 19  1  0  0  0
 18 65  1  0  0  0
 18 66  1  0  0  0
 19 20  1  0  0  0
 19 67  1  0  0  0
 19 68  1  0  0  0
 20 21  1  0  0  0
 20 93  1  0  0  0
 21 22  1  0  0  0
 21 69  1  0  0  0
 21 70  1  0  0  0
 22 23  1  0  0  0
 22 45  1  0  0  0
 22 71  1  0  0  0
 23 24  1  0  0  0
 23 72  1  0  0  0
 23 73  1  0  0  0
 24 25  1  0  0  0
 24 32  1  0  0  0
 24 74  1  0  0  0
 25 26  1  0  0  0
 25 75  1  0  0  0
 25 76  1  0  0  0
 26 27  2  0  0  0
 26 31  1  0  0  0
 27 28  1  0  0  0
 27 77  1  0  0  0
 28 29  2  0  0  0
 28 78  1  0  0  0
 29 30  1  0  0  0
 29 79  1  0  0  0
 30 31  2  0  0  0
 30 80  1  0  0  0
 31 81  1  0  0  0
 32 33  2  0  0  0
 32 34  1  0  0  0
 34 35  1  0  0  0
 34 82  1  0  0  0
 35 36  1  0  0  0
 35 43  1  0  0  0
 35 83  1  0  0  0
 36 37  2  0  0  0
 36 41  1  0  0  0
 37 38  1  0  0  0
 37 84  1  0  0  0
 38 39  2  0  0  0
 38 85  1  0  0  0
 39 40  1  0  0  0
 39 86  1  0  0  0
 40 41  2  0  0  0
 40 87  1  0  0  0
 41 42  1  0  0  0
 42 43  1  0  0  0
 42 88  1  0  0  0
 42 89  1  0  0  0
 43 44  1  0  0  0
 43 90  1  0  0  0
 44 91  1  0  0  0
 45 92  1  0  0  0
M  CHG  1  20   1
M  END
> <s_m_entry_id>
3298

> <s_m_entry_name>
Compounds-withfrags-for-validation-docking.1913

> <s_m_Source_Path>
/home/rodolpho/data/melina/maestro/glide-dock_XP_5RGK_M-PRO_VALIDATION

> <s_m_Source_File>
glide-dock_XP_5RGK_M-PRO_VALIDATION_pv.maegz

> <i_m_Source_File_Index>
3298

> <CID>
Indinavir

> <Potency>
43.13

> <pIC50>
4.36522

> <Source>
https://doi.org/10.1101/2020.03.23.004580

> <smiles>
C(C(C([H])([H])[H])(C([H])([H])[H])N(C(=O)C1(C([H])([H])N(C(C2=C([H])C([H])=C([H])N=C2[H])([H])[H])C([H])([H])C([H])([H])N1C(C(C(C(C(C1=C([H])C([H])=C([H])C([H])=C1[H])([H])[H])(C(=O)N(C1(C2=C(C(=C(C([H])=C2C([H])([H])C1(O[H])[H])[H])[H])[H])[H])[H])[H])([H])[H])(O[H])[H])([H])[H])[H])[H])([H])([H])[H]

> <Outcome>
Inactive

> <StandardizerResult>
Clear Stereo (ID: ClearStereo)
Wedge Clean (ID: WedgeClean)
Mesomerize (ID: Mesomerize)
Tautomerize (ID: Tautomerize)
Aromatize (ID: Aromatize)
Add Explicit Hydrogens (ID: AddExplicitH)
Neutralize (ID: Neutralize)
Clean 2D (ID: Clean2D)

> <chiral flag>
0

> <version>
0

> <i_lp_mmshare_version>
41011

> <i_f3d_flags>
0

> <s_epik_input>
W2NIXTFuW2NIXVtjSF1bY0hdYzFbQ0gyXU4oW0NIMl1bQ0BIXTJDKD1PKVtOSF1DKFtDSDNdKShbQ0gzXSlbQ0gzXSlbQ0gyXVtDSDJdTjJbQ0gyXVtDQEBIXShbT0hdKVtDSDJdW0NAQEhdKFtDSDJdYzNbY0hdW2NIXVtjSF1bY0hdW2NIXTMpQyg9TylbTkhdW0NAQEhdNFtDQEBIXShbT0hdKVtDSDJdYyhjNDUpW2NIXVtjSF1bY0hdW2NIXTU=

> <s_epik_cmdline>
J2VwaWtfcHl0aG9uJywgJy1waHQnLCAnMC41JywgJy1waCcsICc3LjQnLCAnLXRuJywgJzgnLCAnLW1hJywgJzIwMCcsICctaW1hZScsICc8aW5maWxlLm1hZT4nLCAnLW9tYWUnLCAnPG91dGZpbGUubWFlPic=

> <r_epik_Ionization_Penalty>
0.3395

> <r_epik_Ionization_Penalty_Charging>
0.3352

> <r_epik_Ionization_Penalty_Neutral>
0.0044

> <r_epik_State_Penalty>
0.5191

> <r_epik_Charging_Adjusted_Penalty>
0.854238

> <i_epik_Tot_Q>
1

> <i_epik_Tot_abs_Q>
1

> <s_lp_Force_Field>
OPLS3

> <r_lp_Energy>
53.5207

> <b_lp_Chiralities_Consistent>
1

> <s_lp_Variant>
ligprep_COVID_compounds-withfrags-smallmolecules-forvalidation.maegz:4-12

> <i_glide_original_lignum>
31

> <s_i_glide_gridfile>
glide-grid_5RGK_M-PRO_COVID

> <i_i_glide_lignum>
31

> <r_i_docking_score>
-2.88818267077887

> <r_i_glide_ligand_efficiency>
-0.0641818371284193

> <r_i_glide_ligand_efficiency_sa>
-0.228287946462275

> <r_i_glide_ligand_efficiency_ln>
-0.600870703305169

> <r_glide_XP_GScore>
-3.40725467077887

> <r_i_glide_gscore>
-3.40725467077887

> <r_i_glide_evdw>
-30.660737991333

> <r_i_glide_ecoul>
-20.2981147766113

> <r_i_glide_energy>
-50.9588527679443

> <r_i_glide_einternal>
9.6627140045166

> <r_i_glide_emodel>
-74.9269466259905

> <r_glide_XP_HBond>
-2.11659217082274

> <i_i_glide_confnum>
18

> <i_i_glide_posenum>
29

> <r_i_glide_eff_state_penalty>
0.519072

> <i_glide_XP_PoseRank>
1

> <r_lp_tautomer_probability>


> <s_epik_Chemistry_Notes>


> <MW>


> <cLogP>


> <TPSA>


> <Rotatable Bonds>


> <Fraction sp3>


> <HBA>


> <HBD>


> <Structure ID>


> <Submission Fragments>


$$$$
ligprep_COVID_compounds-withfrags-smallmolecules-forvalidation.maegz:3
                    3D
 Structure written by MMmdl.
 23 23  0  0  1  0            999 V2000
    6.7485    1.7012   23.3645 C   0  0  0  0  0  0
    8.0091    1.2222   24.0848 C   0  0  0  0  0  0
    7.9532   -0.0898   24.3937 N   0  5  0  0  0  0
    9.2059   -0.8362   25.0804 S   0  0  0  0  0  0
   10.1891   -1.2918   24.0854 O   0  0  0  0  0  0
    9.7138   -0.1634   26.2886 O   0  0  0  0  0  0
    8.3755   -2.3169   25.6791 C   0  0  0  0  0  0
    7.2168   -2.2009   26.4764 C   0  0  0  0  0  0
    6.5866   -3.3631   26.9673 C   0  0  0  0  0  0
    7.1196   -4.6338   26.6697 C   0  0  0  0  0  0
    6.4969   -5.7773   27.1616 N   0  0  0  0  0  0
    8.2793   -4.7501   25.8774 C   0  0  0  0  0  0
    8.9056   -3.5911   25.3747 C   0  0  0  0  0  0
    8.9240    2.0248   24.2753 O   0  0  0  0  0  0
    6.0110    0.9086   23.2320 H   0  0  0  0  0  0
    7.0010    2.0901   22.3776 H   0  0  0  0  0  0
    6.2801    2.5096   23.9265 H   0  0  0  0  0  0
    6.8148   -1.2259   26.7118 H   0  0  0  0  0  0
    5.6989   -3.2737   27.5776 H   0  0  0  0  0  0
    6.9323   -6.6942   27.0571 H   0  0  0  0  0  0
    5.7494   -5.7238   27.8358 H   0  0  0  0  0  0
    8.6927   -5.7243   25.6577 H   0  0  0  0  0  0
    9.7977   -3.6892   24.7732 H   0  0  0  0  0  0
  1  2  1  0  0  0
  1 15  1  0  0  0
  1 16  1  0  0  0
  1 17  1  0  0  0
  2  3  1  0  0  0
  2 14  2  0  0  0
  3  4  1  0  0  0
  4  5  2  0  0  0
  4  6  2  0  0  0
  4  7  1  0  0  0
  7  8  2  0  0  0
  7 13  1  0  0  0
  8  9  1  0  0  0
  8 18  1  0  0  0
  9 10  2  0  0  0
  9 19  1  0  0  0
 10 11  1  0  0  0
 10 12  1  0  0  0
 11 20  1  0  0  0
 11 21  1  0  0  0
 12 13  2  0  0  0
 12 22  1  0  0  0
 13 23  1  0  0  0
M  CHG  1   3  -1
M  END
> <s_m_entry_id>
3303

> <s_m_entry_name>
Compounds-withfrags-for-validation-docking.1914

> <s_m_Source_Path>
/home/rodolpho/data/melina/maestro/glide-dock_XP_5RGK_M-PRO_VALIDATION

> <s_m_Source_File>
glide-dock_XP_5RGK_M-PRO_VALIDATION_pv.maegz

> <i_m_Source_File_Index>
3303

> <CID>
Sulfacetamide

> <pIC50>
4.30103

> <Source>
https://doi.org/10.1101/2020.03.23.004580

> <smiles>
C(C(=NS(=O)(=O)C1=C([H])C([H])=C(N([H])[H])C([H])=C1[H])O[H])([H])([H])[H]

> <Outcome>
Inactive

> <StandardizerResult>
Clear Stereo (ID: ClearStereo)
Wedge Clean (ID: WedgeClean)
Mesomerize (ID: Mesomerize)
Tautomerize (ID: Tautomerize)
Aromatize (ID: Aromatize)
Add Explicit Hydrogens (ID: AddExplicitH)
Neutralize (ID: Neutralize)
Clean 2D (ID: Clean2D)

> <chiral flag>
0

> <version>
0

> <i_lp_mmshare_version>
41011

> <i_f3d_flags>
0

> <s_epik_input>
W0NIM11DKD1PKVtOSF1TKD1PKSg9TyljMVtjSF1bY0hdYyhbTkgyXSlbY0hdW2NIXTE=

> <s_epik_cmdline>
J2VwaWtfcHl0aG9uJywgJy1waHQnLCAnMC41JywgJy1waCcsICc3LjQnLCAnLXRuJywgJzgnLCAnLW1hJywgJzIwMCcsICctaW1hZScsICc8aW5maWxlLm1hZT4nLCAnLW9tYWUnLCAnPG91dGZpbGUubWFlPic=

> <r_lp_tautomer_probability>
1.0

> <r_epik_Ionization_Penalty>
0.0092

> <r_epik_Ionization_Penalty_Charging>
0.0088

> <r_epik_Ionization_Penalty_Neutral>
4.0E-4

> <r_epik_State_Penalty>
0.0

> <r_epik_Charging_Adjusted_Penalty>
0.00879932

> <i_epik_Tot_Q>
-1

> <i_epik_Tot_abs_Q>
1

> <s_lp_Force_Field>
OPLS3

> <r_lp_Energy>
2.51691

> <b_lp_Chiralities_Consistent>
1

> <s_lp_Variant>
ligprep_COVID_compounds-withfrags-smallmolecules-forvalidation.maegz:3-1

> <i_glide_original_lignum>
19

> <s_i_glide_gridfile>
glide-grid_5RGK_M-PRO_COVID

> <i_i_glide_lignum>
19

> <r_i_docking_score>
-2.88323002832711

> <r_i_glide_ligand_efficiency>
-0.205945002023365

> <r_i_glide_ligand_efficiency_sa>
-0.496356753035527

> <r_i_glide_ligand_efficiency_ln>
-0.792301348171379

> <r_glide_XP_GScore>
-2.88323002832711

> <r_i_glide_gscore>
-2.88323002832711

> <r_i_glide_evdw>
-15.703161239624

> <r_i_glide_ecoul>
-12.9559316635132

> <r_i_glide_energy>
-28.6590929031372

> <r_i_glide_einternal>
3.07020974159241

> <r_i_glide_emodel>
-31.8808250427246

> <r_glide_XP_HBond>
-0.584274010170767

> <i_i_glide_confnum>
1

> <i_i_glide_posenum>
49

> <r_i_glide_eff_state_penalty>
0.0

> <i_glide_XP_PoseRank>
1

> <Potency>
50.0

> <s_epik_Chemistry_Notes>


> <MW>


> <cLogP>


> <TPSA>


> <Rotatable Bonds>


> <Fraction sp3>


> <HBA>


> <HBD>


> <Structure ID>


> <Submission Fragments>


$$$$
ligprep_COVID_compounds-withfrags-smallmolecules-forvalidation.maegz:47
                    3D
 Structure written by MMmdl.
 76 79  0  0  1  0            999 V2000
    1.4266    1.7475   28.8004 C   0  0  0  0  0  0
    1.3652    0.3026   28.2817 C   0  0  2  0  0  0
    2.4665    0.0444   27.2369 C   0  0  0  0  0  0
    2.4528   -1.3971   26.6921 C   0  0  1  0  0  0
    3.1175   -2.3940   27.6748 C   0  0  0  0  0  0
    3.1702   -3.8479   27.1531 C   0  0  0  0  0  0
    3.9021   -4.7844   28.0382 N   0  0  0  0  0  0
    3.4490   -4.9831   29.3046 C   0  0  0  0  0  0
    2.3197   -4.6482   29.6670 O   0  0  0  0  0  0
    4.3979   -5.4472   30.3401 C   0  0  0  0  0  0
    5.0398   -6.6385   30.5606 C   0  0  0  0  0  0
    5.8290   -6.4679   31.7307 C   0  0  0  0  0  0
    5.5921   -5.1929   32.1568 C   0  0  0  0  0  0
    4.7126   -4.5670   31.3317 O   0  0  0  0  0  0
    4.9375   -5.6518   27.4149 C   0  0  2  0  0  0
    6.3074   -4.9591   27.2608 C   0  0  0  0  0  0
    6.3961   -3.7375   27.3705 O   0  0  0  0  0  0
    7.3602   -5.7638   27.0369 N   0  0  0  0  0  0
    8.7809   -5.4059   27.0182 C   0  0  0  0  0  0
    9.1963   -4.1143   26.2892 C   0  0  0  0  0  0
    8.4835   -3.8328   24.9806 C   0  0  0  0  0  0
    8.4016   -4.8218   23.9771 C   0  0  0  0  0  0
    7.7241   -4.5484   22.7756 C   0  0  0  0  0  0
    7.1511   -3.2803   22.5658 C   0  0  0  0  0  0
    7.2158   -2.2949   23.5673 C   0  0  0  0  0  0
    6.6478   -1.0813   23.3719 F   0  0  0  0  0  0
    7.8877   -2.5704   24.7720 C   0  0  0  0  0  0
    4.4509   -6.1763   26.0841 C   0  0  0  0  0  0
    3.4146   -7.1382   26.0745 C   0  0  0  0  0  0
    2.8634   -7.5875   24.8626 C   0  0  0  0  0  0
    3.3726   -7.0563   23.6670 C   0  0  0  0  0  0
    4.3770   -6.1633   23.6313 N   0  0  0  0  0  0
    4.8942   -5.7436   24.8050 C   0  0  0  0  0  0
    1.0346   -1.7608   26.1814 C   0  0  0  0  0  0
   -0.1473   -1.4624   27.1419 C   0  0  0  0  0  0
   -1.4614   -1.5658   26.3368 C   0  0  0  0  0  0
   -0.2470   -2.4896   28.2921 C   0  0  0  0  0  0
   -0.0238   -0.0195   27.6913 C   0  0  0  0  0  0
    1.2541    2.4641   27.9941 H   0  0  0  0  0  0
    2.4032    1.9650   29.2385 H   0  0  0  0  0  0
    0.6736    1.9196   29.5700 H   0  0  0  0  0  0
    1.5421   -0.3468   29.1402 H   0  0  0  0  0  0
    2.3363    0.7369   26.4030 H   0  0  0  0  0  0
    3.4447    0.2679   27.6636 H   0  0  0  0  0  0
    3.0990   -1.4003   25.8125 H   0  0  0  0  0  0
    4.1437   -2.0649   27.8510 H   0  0  0  0  0  0
    2.6427   -2.3377   28.6495 H   0  0  0  0  0  0
    2.1669   -4.2452   27.0053 H   0  0  0  0  0  0
    3.6267   -3.7922   26.1680 H   0  0  0  0  0  0
    4.9571   -7.5323   29.9602 H   0  0  0  0  0  0
    6.4880   -7.1819   32.2026 H   0  0  0  0  0  0
    5.9728   -4.5909   32.9708 H   0  0  0  0  0  0
    5.1240   -6.5339   28.0178 H   0  0  0  0  0  0
    7.1765   -6.7618   26.9702 H   0  0  0  0  0  0
    9.1691   -5.3639   28.0364 H   0  0  0  0  0  0
    9.2787   -6.2415   26.5311 H   0  0  0  0  0  0
    9.0517   -3.2710   26.9653 H   0  0  0  0  0  0
   10.2676   -4.1640   26.0847 H   0  0  0  0  0  0
    8.8533   -5.7934   24.1283 H   0  0  0  0  0  0
    7.6561   -5.3063   22.0099 H   0  0  0  0  0  0
    6.6384   -3.0594   21.6401 H   0  0  0  0  0  0
    7.9317   -1.8105   25.5377 H   0  0  0  0  0  0
    3.0209   -7.5196   27.0053 H   0  0  0  0  0  0
    2.0588   -8.3093   24.8546 H   0  0  0  0  0  0
    2.9667   -7.3648   22.7149 H   0  0  0  0  0  0
    5.6543   -4.9860   24.7017 H   0  0  0  0  0  0
    0.8802   -1.1729   25.2744 H   0  0  0  0  0  0
    0.9887   -2.7930   25.8435 H   0  0  0  0  0  0
   -2.3298   -1.3331   26.9544 H   0  0  0  0  0  0
   -1.6011   -2.5718   25.9390 H   0  0  0  0  0  0
   -1.4717   -0.8751   25.4905 H   0  0  0  0  0  0
   -1.1754   -2.3634   28.8498 H   0  0  0  0  0  0
    0.5566   -2.3980   29.0184 H   0  0  0  0  0  0
   -0.2310   -3.5131   27.9140 H   0  0  0  0  0  0
   -0.7937    0.1577   28.4430 H   0  0  0  0  0  0
   -0.2246    0.6886   26.8843 H   0  0  0  0  0  0
  1  2  1  0  0  0
  1 39  1  0  0  0
  1 40  1  0  0  0
  1 41  1  0  0  0
  2  3  1  0  0  0
  2 38  1  0  0  0
  2 42  1  0  0  0
  3  4  1  0  0  0
  3 43  1  0  0  0
  3 44  1  0  0  0
  4  5  1  0  0  0
  4 34  1  0  0  0
  4 45  1  0  0  0
  5  6  1  0  0  0
  5 46  1  0  0  0
  5 47  1  0  0  0
  6  7  1  0  0  0
  6 48  1  0  0  0
  6 49  1  0  0  0
  7  8  1  0  0  0
  7 15  1  0  0  0
  8  9  2  0  0  0
  8 10  1  0  0  0
 10 11  2  0  0  0
 10 14  1  0  0  0
 11 12  1  0  0  0
 11 50  1  0  0  0
 12 13  2  0  0  0
 12 51  1  0  0  0
 13 14  1  0  0  0
 13 52  1  0  0  0
 15 16  1  0  0  0
 15 28  1  0  0  0
 15 53  1  0  0  0
 16 17  2  0  0  0
 16 18  1  0  0  0
 18 19  1  0  0  0
 18 54  1  0  0  0
 19 20  1  0  0  0
 19 55  1  0  0  0
 19 56  1  0  0  0
 20 21  1  0  0  0
 20 57  1  0  0  0
 20 58  1  0  0  0
 21 22  2  0  0  0
 21 27  1  0  0  0
 22 23  1  0  0  0
 22 59  1  0  0  0
 23 24  2  0  0  0
 23 60  1  0  0  0
 24 25  1  0  0  0
 24 61  1  0  0  0
 25 26  1  0  0  0
 25 27  2  0  0  0
 27 62  1  0  0  0
 28 29  2  0  0  0
 28 33  1  0  0  0
 29 30  1  0  0  0
 29 63  1  0  0  0
 30 31  2  0  0  0
 30 64  1  0  0  0
 31 32  1  0  0  0
 31 65  1  0  0  0
 32 33  2  0  0  0
 33 66  1  0  0  0
 34 35  1  0  0  0
 34 67  1  0  0  0
 34 68  1  0  0  0
 35 36  1  0  0  0
 35 37  1  0  0  0
 35 38  1  0  0  0
 36 69  1  0  0  0
 36 70  1  0  0  0
 36 71  1  0  0  0
 37 72  1  0  0  0
 37 73  1  0  0  0
 37 74  1  0  0  0
 38 75  1  0  0  0
 38 76  1  0  0  0
M  END
> <s_m_entry_id>
3305

> <s_m_entry_name>
Compounds-withfrags-for-validation-docking.1870

> <s_m_Source_Path>
/home/rodolpho/data/melina/maestro/glide-dock_XP_5RGK_M-PRO_VALIDATION

> <s_m_Source_File>
glide-dock_XP_5RGK_M-PRO_VALIDATION_pv.maegz

> <i_m_Source_File_Index>
3305

> <CID>
ALP-POS-b0bc6a46-1

> <Potency>
99.5

> <pIC50>
4.00218

> <Source>
Postera

> <smiles>
CC1CC(CCN(C(=O)c2ccco2)C(C(=O)NCCc2cccc(F)c2)c2cccnc2)CC(C)(C)C1

> <Outcome>
Inactive

> <StandardizerResult>
Clear Stereo (ID: ClearStereo)
Wedge Clean (ID: WedgeClean)
Mesomerize (ID: Mesomerize)
Tautomerize (ID: Tautomerize)
Aromatize (ID: Aromatize)
Add Explicit Hydrogens (ID: AddExplicitH)
Neutralize (ID: Neutralize)
Clean 2D (ID: Clean2D)

> <chiral flag>
0

> <version>
0

> <i_lp_mmshare_version>
41011

> <i_f3d_flags>
0

> <s_epik_input>
W0NIM11bQ0BASF0oW0NIMl0xKVtDSDJdW0NASF0oW0NIMl1DMShbQ0gzXSlbQ0gzXSlbQ0gyXVtDSDJdTihDKD1PKWMyW2NIXVtjSF1bY0hdbzIpW0NAQEhdKGMzW2NIXVtjSF1bY0hdbltjSF0zKUMoPU8pW05IXVtDSDJdW0NIMl1jNFtjSF1bY0hdW2NIXWMoRilbY0hdNA==

> <s_epik_cmdline>
J2VwaWtfcHl0aG9uJywgJy1waHQnLCAnMC41JywgJy1waCcsICc3LjQnLCAnLXRuJywgJzgnLCAnLW1hJywgJzIwMCcsICctaW1hZScsICc8aW5maWxlLm1hZT4nLCAnLW9tYWUnLCAnPG91dGZpbGUubWFlPic=

> <r_lp_tautomer_probability>
1.0

> <r_epik_Ionization_Penalty>
8.0E-4

> <r_epik_Ionization_Penalty_Charging>
0.0

> <r_epik_Ionization_Penalty_Neutral>
8.0E-4

> <r_epik_State_Penalty>
0.0

> <r_epik_Charging_Adjusted_Penalty>
0.0

> <i_epik_Tot_Q>
0

> <i_epik_Tot_abs_Q>
0

> <s_lp_Force_Field>
OPLS3

> <r_lp_Energy>
54.4945

> <b_lp_Chiralities_Consistent>
1

> <s_lp_Variant>
ligprep_COVID_compounds-withfrags-smallmolecules-forvalidation.maegz:47-5

> <i_glide_original_lignum>
209

> <s_i_glide_gridfile>
glide-grid_5RGK_M-PRO_COVID

> <i_i_glide_lignum>
209

> <r_i_docking_score>
-2.88235307008499

> <r_i_glide_ligand_efficiency>
-0.075851396581184

> <r_i_glide_ligand_efficiency_sa>
-0.255010529568088

> <r_i_glide_ligand_efficiency_ln>
-0.621520112147102

> <r_glide_XP_GScore>
-2.88235307008499

> <r_i_glide_gscore>
-2.88235307008499

> <r_i_glide_evdw>
-34.9053268432617

> <r_i_glide_ecoul>
-9.65807247161865

> <r_i_glide_energy>
-44.5633993148804

> <r_i_glide_einternal>
6.80215072631836

> <r_i_glide_emodel>
-51.0785980224609

> <r_glide_XP_HBond>
-0.53655581098922

> <i_i_glide_confnum>
1

> <i_i_glide_posenum>
15

> <r_i_glide_eff_state_penalty>
0.0

> <i_glide_XP_PoseRank>
1

> <MW>
519.29

> <cLogP>
6.21

> <TPSA>
75.44

> <Rotatable Bonds>
10

> <Fraction sp3>
0.45

> <HBA>
4

> <HBD>
1

> <s_epik_Chemistry_Notes>


> <Structure ID>


> <Submission Fragments>


$$$$
ligprep_COVID_compounds-withfrags-smallmolecules-forvalidation.maegz:19
                    3D
 Structure written by MMmdl.
 74 78  0  0  1  0            999 V2000
    5.9182   -0.4590   19.1984 C   0  0  0  0  0  0
    5.6526   -0.2464   20.6067 N   0  0  0  0  0  0
    6.4095   -0.9003   21.5182 N   0  0  0  0  0  0
    5.9747   -0.5623   22.7105 C   0  0  0  0  0  0
    6.6289   -0.9575   24.0343 C   0  0  2  0  0  0
    7.9184   -0.1277   24.2472 C   0  0  0  0  0  0
    8.9728   -0.6764   24.5749 O   0  0  0  0  0  0
    7.7994    1.2097   24.1948 N   0  0  0  0  0  0
    8.5960    2.1211   25.0168 C   0  0  0  0  0  0
    9.1805    3.3135   24.2392 C   0  0  0  0  0  0
   10.6015    3.1564   23.7153 C   0  0  0  0  0  0
   11.2590    4.3129   23.2399 C   0  0  0  0  0  0
   12.5406    4.2216   22.6674 C   0  0  0  0  0  0
   13.1746    2.9704   22.5707 C   0  0  0  0  0  0
   12.5419    1.8169   23.0668 C   0  0  0  0  0  0
   13.1578    0.6160   22.9718 F   0  0  0  0  0  0
   11.2624    1.9072   23.6449 C   0  0  0  0  0  0
    6.7736   -2.3957   24.4056 N   0  0  0  0  0  0
    7.3971   -3.3098   23.6120 C   0  0  0  0  0  0
    7.1749   -3.4753   22.4182 O   0  0  0  0  0  0
    8.4236   -4.1480   24.2520 C   0  0  0  0  0  0
    9.7128   -3.8503   24.5938 C   0  0  0  0  0  0
   10.2009   -4.9638   25.3273 C   0  0  0  0  0  0
    9.1781   -5.8664   25.3686 C   0  0  0  0  0  0
    8.0964   -5.4011   24.6830 O   0  0  0  0  0  0
    6.0807   -2.8203   25.6035 C   0  0  0  0  0  0
    4.7134   -2.5015   25.7708 C   0  0  0  0  0  0
    3.9917   -2.9111   26.9075 C   0  0  0  0  0  0
    4.6125   -3.6681   27.9246 C   0  0  0  0  0  0
    3.8034   -4.0921   29.1653 C   0  0  0  0  0  0
    3.2595   -2.8352   29.8774 C   0  0  0  0  0  0
    4.6475   -4.8781   30.1959 C   0  0  0  0  0  0
    2.6253   -4.9896   28.7286 C   0  0  0  0  0  0
    5.9776   -3.9939   27.7633 C   0  0  0  0  0  0
    6.7083   -3.5401   26.6484 C   0  0  0  0  0  0
    4.8477    0.3252   22.5780 C   0  0  0  0  0  0
    3.9381    0.9810   23.4435 C   0  0  0  0  0  0
    2.9531    1.8560   22.9418 C   0  0  0  0  0  0
    2.8554    2.0975   21.5573 C   0  0  0  0  0  0
    3.7217    1.4366   20.6683 C   0  0  0  0  0  0
    4.6962    0.5635   21.1846 C   0  0  0  0  0  0
    6.6679    0.2545   18.8598 H   0  0  0  0  0  0
    5.0033   -0.3207   18.6202 H   0  0  0  0  0  0
    6.2832   -1.4732   19.0334 H   0  0  0  0  0  0
    5.9941   -0.5418   24.8085 H   0  0  0  0  0  0
    6.9334    1.5849   23.8357 H   0  0  0  0  0  0
    7.8769    2.5237   25.7321 H   0  0  0  0  0  0
    9.3497    1.6246   25.6337 H   0  0  0  0  0  0
    8.5287    3.5862   23.4077 H   0  0  0  0  0  0
    9.1864    4.1783   24.9030 H   0  0  0  0  0  0
   10.7630    5.2720   23.2757 H   0  0  0  0  0  0
   13.0275    5.1090   22.2889 H   0  0  0  0  0  0
   14.1580    2.8922   22.1317 H   0  0  0  0  0  0
   10.7914    1.0014   23.9924 H   0  0  0  0  0  0
   10.2321   -2.9289   24.3761 H   0  0  0  0  0  0
   11.1758   -5.0857   25.7702 H   0  0  0  0  0  0
    9.0657   -6.8445   25.8182 H   0  0  0  0  0  0
    4.1942   -1.9472   25.0039 H   0  0  0  0  0  0
    2.9503   -2.6405   26.9883 H   0  0  0  0  0  0
    2.6946   -3.0975   30.7717 H   0  0  0  0  0  0
    2.5941   -2.2515   29.2411 H   0  0  0  0  0  0
    4.0763   -2.1792   30.1884 H   0  0  0  0  0  0
    5.4854   -4.2854   30.5717 H   0  0  0  0  0  0
    5.0451   -5.8023   29.7737 H   0  0  0  0  0  0
    4.0469   -5.1572   31.0623 H   0  0  0  0  0  0
    2.0530   -5.3350   29.5917 H   0  0  0  0  0  0
    2.9823   -5.8747   28.1972 H   0  0  0  0  0  0
    1.9332   -4.4637   28.0705 H   0  0  0  0  0  0
    6.5159   -4.5637   28.5052 H   0  0  0  0  0  0
    7.7616   -3.7632   26.6320 H   0  0  0  0  0  0
    3.9747    0.7908   24.5037 H   0  0  0  0  0  0
    2.2733    2.3520   23.6192 H   0  0  0  0  0  0
    2.1157    2.7864   21.1755 H   0  0  0  0  0  0
    3.6575    1.6198   19.6056 H   0  0  0  0  0  0
  1  2  1  0  0  0
  1 42  1  0  0  0
  1 43  1  0  0  0
  1 44  1  0  0  0
  2  3  1  0  0  0
  2 41  1  0  0  0
  3  4  2  0  0  0
  4  5  1  0  0  0
  4 36  1  0  0  0
  5  6  1  0  0  0
  5 18  1  0  0  0
  5 45  1  0  0  0
  6  7  2  0  0  0
  6  8  1  0  0  0
  8  9  1  0  0  0
  8 46  1  0  0  0
  9 10  1  0  0  0
  9 47  1  0  0  0
  9 48  1  0  0  0
 10 11  1  0  0  0
 10 49  1  0  0  0
 10 50  1  0  0  0
 11 12  2  0  0  0
 11 17  1  0  0  0
 12 13  1  0  0  0
 12 51  1  0  0  0
 13 14  2  0  0  0
 13 52  1  0  0  0
 14 15  1  0  0  0
 14 53  1  0  0  0
 15 16  1  0  0  0
 15 17  2  0  0  0
 17 54  1  0  0  0
 18 19  1  0  0  0
 18 26  1  0  0  0
 19 20  2  0  0  0
 19 21  1  0  0  0
 21 22  2  0  0  0
 21 25  1  0  0  0
 22 23  1  0  0  0
 22 55  1  0  0  0
 23 24  2  0  0  0
 23 56  1  0  0  0
 24 25  1  0  0  0
 24 57  1  0  0  0
 26 27  2  0  0  0
 26 35  1  0  0  0
 27 28  1  0  0  0
 27 58  1  0  0  0
 28 29  2  0  0  0
 28 59  1  0  0  0
 29 30  1  0  0  0
 29 34  1  0  0  0
 30 31  1  0  0  0
 30 32  1  0  0  0
 30 33  1  0  0  0
 31 60  1  0  0  0
 31 61  1  0  0  0
 31 62  1  0  0  0
 32 63  1  0  0  0
 32 64  1  0  0  0
 32 65  1  0  0  0
 33 66  1  0  0  0
 33 67  1  0  0  0
 33 68  1  0  0  0
 34 35  2  0  0  0
 34 69  1  0  0  0
 35 70  1  0  0  0
 36 37  2  0  0  0
 36 41  1  0  0  0
 37 38  1  0  0  0
 37 71  1  0  0  0
 38 39  2  0  0  0
 38 72  1  0  0  0
 39 40  1  0  0  0
 39 73  1  0  0  0
 40 41  2  0  0  0
 40 74  1  0  0  0
M  END
> <s_m_entry_id>
3315

> <s_m_entry_name>
Compounds-withfrags-for-validation-docking.1898

> <s_m_Source_Path>
/home/rodolpho/data/melina/maestro/glide-dock_XP_5RGK_M-PRO_VALIDATION

> <s_m_Source_File>
glide-dock_XP_5RGK_M-PRO_VALIDATION_pv.maegz

> <i_m_Source_File_Index>
3315

> <CID>
ALP-POS-02c6a514-31

> <Potency>
99.5

> <pIC50>
4.00218

> <Source>
Postera

> <smiles>
Cn1nc(C(C(=O)NCCc2cccc(F)c2)N(C(=O)c2ccco2)c2ccc(C(C)(C)C)cc2)c2ccccc21

> <Outcome>
Inactive

> <StandardizerResult>
Clear Stereo (ID: ClearStereo)
Wedge Clean (ID: WedgeClean)
Mesomerize (ID: Mesomerize)
Tautomerize (ID: Tautomerize)
Aromatize (ID: Aromatize)
Add Explicit Hydrogens (ID: AddExplicitH)
Neutralize (ID: Neutralize)
Clean 2D (ID: Clean2D)

> <chiral flag>
0

> <version>
0

> <i_lp_mmshare_version>
41011

> <i_f3d_flags>
0

> <s_epik_input>
W2NIXTFbY0hdW2NIXVtjSF1jKGMxMiluKFtDSDNdKW5jMltDQEBIXShOKEMoPU8pYzNbY0hdW2NIXVtjSF1vMyljNFtjSF1bY0hdYyhDKFtDSDNdKShbQ0gzXSlbQ0gzXSlbY0hdW2NIXTQpQyg9TylbTkhdW0NIMl1bQ0gyXWM1W2NIXVtjSF1bY0hdYyhGKVtjSF01

> <s_epik_cmdline>
J2VwaWtfcHl0aG9uJywgJy1waHQnLCAnMC41JywgJy1waCcsICc3LjQnLCAnLXRuJywgJzgnLCAnLW1hJywgJzIwMCcsICctaW1hZScsICc8aW5maWxlLm1hZT4nLCAnLW9tYWUnLCAnPG91dGZpbGUubWFlPic=

> <r_lp_tautomer_probability>
1.0

> <r_epik_Ionization_Penalty>
0.0

> <r_epik_Ionization_Penalty_Charging>
0.0

> <r_epik_Ionization_Penalty_Neutral>
0.0

> <r_epik_State_Penalty>
0.0

> <r_epik_Charging_Adjusted_Penalty>
0.0

> <i_epik_Tot_Q>
0

> <i_epik_Tot_abs_Q>
0

> <s_lp_Force_Field>
OPLS3

> <r_lp_Energy>
69.6386

> <b_lp_Chiralities_Consistent>
1

> <s_lp_Variant>
ligprep_COVID_compounds-withfrags-smallmolecules-forvalidation.maegz:19-1

> <i_glide_original_lignum>
131

> <s_i_glide_gridfile>
glide-grid_5RGK_M-PRO_COVID

> <i_i_glide_lignum>
131

> <r_i_docking_score>
-2.8716843441114

> <r_i_glide_ligand_efficiency>
-0.0700410815636926

> <r_i_glide_ligand_efficiency_sa>
-0.241516864684014

> <r_i_glide_ligand_efficiency_ln>
-0.609237390130593

> <r_glide_XP_GScore>
-2.8716843441114

> <r_i_glide_gscore>
-2.8716843441114

> <r_i_glide_evdw>
-51.9882736206055

> <r_i_glide_ecoul>
-3.08521890640259

> <r_i_glide_energy>
-55.0734925270081

> <r_i_glide_einternal>
11.5367050170898

> <r_i_glide_emodel>
-72.610323510316

> <r_glide_XP_HBond>
0.0

> <i_i_glide_confnum>
1

> <i_i_glide_posenum>
1

> <r_i_glide_eff_state_penalty>
0.0

> <i_glide_XP_PoseRank>
1

> <MW>
552.25

> <cLogP>
6.35

> <TPSA>
80.37

> <Rotatable Bonds>
8

> <Fraction sp3>
0.24

> <HBA>
5

> <HBD>
1

> <s_epik_Chemistry_Notes>


> <Structure ID>


> <Submission Fragments>


$$$$
ligprep_COVID_compounds-withfrags-smallmolecules-forvalidation.maegz:6
                    3D
 Structure written by MMmdl.
 56 59  0  0  1  0            999 V2000
    3.0352    1.1444   24.2644 C   0  0  0  0  0  0
    3.7597    2.1647   23.3621 C   0  0  1  0  0  0
    4.4317    1.4351   22.1935 C   0  0  0  0  0  0
    5.5390    0.6036   22.4835 C   0  0  0  0  0  0
    6.2625   -0.0224   21.4580 C   0  0  0  0  0  0
    5.9085    0.2101   20.1226 C   0  0  0  0  0  0
    4.8132    1.0361   19.8114 C   0  0  0  0  0  0
    4.5818    1.2643   18.4891 O   0  0  0  0  0  0
    4.0185    1.6194   20.8396 C   0  0  0  0  0  0
    2.7750    2.4104   20.5212 C   0  0  0  0  0  0
    2.3883    2.6363   19.3711 O   0  0  0  0  0  0
    1.9996    2.8886   21.6807 C   0  0  0  0  0  0
    2.8618    3.3255   22.8507 C   0  0  1  0  0  0
    2.0549    4.1577   23.8867 C   0  0  2  0  0  0
    0.6424    3.5694   24.1302 C   0  0  1  0  0  0
   -0.1288    4.0545   25.3810 C   0  0  1  0  0  0
   -0.3274    5.5244   25.3628 N   0  0  0  0  0  0
    0.3355    6.1616   26.4934 C   0  0  0  0  0  0
   -1.7053    6.0069   25.2817 C   0  0  0  0  0  0
   -1.4068    3.2089   25.6262 C   0  0  0  0  0  0
   -1.6890    3.3500   26.8427 O   0  5  0  0  0  0
   -1.9615    2.4123   24.6020 C   0  0  0  0  0  0
   -3.1653    1.6186   24.9610 C   0  0  0  0  0  0
   -3.6772    0.8776   23.9781 N   0  0  0  0  0  0
   -3.7364    1.5882   26.0493 O   0  0  0  0  0  0
   -1.3213    2.3496   23.2320 C   0  0  0  0  0  0
   -1.6174    1.4837   22.4020 O   0  0  0  0  0  0
   -0.2301    3.3961   22.8641 C   0  0  2  0  0  0
    0.6469    2.9821   21.6612 C   0  0  0  0  0  0
   -0.0851    2.7732   20.5496 O   0  0  0  0  0  0
   -0.8555    4.6194   22.5310 O   0  0  0  0  0  0
    1.9450    5.4783   23.3768 O   0  0  0  0  0  0
    4.7405    2.7806   24.1706 O   0  0  0  0  0  0
    2.1855    0.6901   23.7555 H   0  0  0  0  0  0
    2.6739    1.6022   25.1850 H   0  0  0  0  0  0
    3.6957    0.3317   24.5677 H   0  0  0  0  0  0
    5.8544    0.4544   23.5062 H   0  0  0  0  0  0
    7.1096   -0.6502   21.6930 H   0  0  0  0  0  0
    6.4901   -0.2392   19.3309 H   0  0  0  0  0  0
    3.9447    1.9557   18.3456 H   0  0  0  0  0  0
    3.5739    4.0281   22.4056 H   0  0  0  0  0  0
    2.6012    4.2172   24.8285 H   0  0  0  0  0  0
    0.8704    2.5476   24.4217 H   0  0  0  0  0  0
    0.5536    3.8370   26.2064 H   0  0  0  0  0  0
    1.3971    5.9135   26.5067 H   0  0  0  0  0  0
   -0.1060    5.8365   27.4370 H   0  0  0  0  0  0
    0.2523    7.2470   26.4300 H   0  0  0  0  0  0
   -2.2478    5.5366   24.4623 H   0  0  0  0  0  0
   -1.7168    7.0826   25.1060 H   0  0  0  0  0  0
   -2.2542    5.8159   26.2043 H   0  0  0  0  0  0
   -3.1932    0.8848   23.0860 H   0  0  0  0  0  0
   -4.4987    0.3178   24.1395 H   0  0  0  0  0  0
    0.5234    2.6454   19.8337 H   0  0  0  0  0  0
   -0.2032    5.2967   22.6556 H   0  0  0  0  0  0
    2.8156    5.8236   23.2417 H   0  0  0  0  0  0
    5.2486    3.3539   23.6077 H   0  0  0  0  0  0
  1  2  1  0  0  0
  1 34  1  0  0  0
  1 35  1  0  0  0
  1 36  1  0  0  0
  2  3  1  0  0  0
  2 33  1  0  0  0
  2 13  1  0  0  0
  3  4  2  0  0  0
  3  9  1  0  0  0
  4  5  1  0  0  0
  4 37  1  0  0  0
  5  6  2  0  0  0
  5 38  1  0  0  0
  6  7  1  0  0  0
  6 39  1  0  0  0
  7  8  1  0  0  0
  7  9  2  0  0  0
  8 40  1  0  0  0
  9 10  1  0  0  0
 10 11  2  0  0  0
 10 12  1  0  0  0
 12 13  1  0  0  0
 12 29  2  0  0  0
 13 14  1  0  0  0
 13 41  1  0  0  0
 14 15  1  0  0  0
 14 32  1  0  0  0
 14 42  1  0  0  0
 15 16  1  0  0  0
 15 28  1  0  0  0
 15 43  1  0  0  0
 16 17  1  0  0  0
 16 20  1  0  0  0
 16 44  1  0  0  0
 17 18  1  0  0  0
 17 19  1  0  0  0
 18 45  1  0  0  0
 18 46  1  0  0  0
 18 47  1  0  0  0
 19 48  1  0  0  0
 19 49  1  0  0  0
 19 50  1  0  0  0
 20 21  1  0  0  0
 20 22  2  0  0  0
 22 23  1  0  0  0
 22 26  1  0  0  0
 23 24  1  0  0  0
 23 25  2  0  0  0
 24 51  1  0  0  0
 24 52  1  0  0  0
 26 27  2  0  0  0
 26 28  1  0  0  0
 28 29  1  0  0  0
 28 31  1  0  0  0
 29 30  1  0  0  0
 30 53  1  0  0  0
 31 54  1  0  0  0
 32 55  1  0  0  0
 33 56  1  0  0  0
M  CHG  1  21  -1
M  END
> <s_m_entry_id>
3320

> <s_m_entry_name>
Compounds-withfrags-for-validation-docking.1911

> <s_m_Source_Path>
/home/rodolpho/data/melina/maestro/glide-dock_XP_5RGK_M-PRO_VALIDATION

> <s_m_Source_File>
glide-dock_XP_5RGK_M-PRO_VALIDATION_pv.maegz

> <i_m_Source_File_Index>
3320

> <CID>
Oxitetracyclin

> <Potency>
15.15

> <pIC50>
4.81959

> <Source>
https://doi.org/10.1101/2020.03.23.004580

> <smiles>
C(C1(C2=C(C(=C(C(O[H])=C2C(O[H])=C2C1(C(C1(C(N(C([H])([H])[H])C([H])([H])[H])([H])C(=O)C(=C(N([H])[H])O[H])C(=O)C1(C2=O)O[H])[H])(O[H])[H])[H])[H])[H])[H])O[H])([H])([H])[H]

> <Outcome>
Inactive

> <StandardizerResult>
Clear Stereo (ID: ClearStereo)
Wedge Clean (ID: WedgeClean)
Mesomerize (ID: Mesomerize)
Tautomerize (ID: Tautomerize)
Aromatize (ID: Aromatize)
Add Explicit Hydrogens (ID: AddExplicitH)
Neutralize (ID: Neutralize)
Clean 2D (ID: Clean2D)

> <chiral flag>
0

> <version>
0

> <i_lp_mmshare_version>
41011

> <i_f3d_flags>
0

> <s_epik_input>
W09IXWMxW2NIXVtjSF1bY0hdYyhbQ0BAXTIoW0NIM10pW09IXSljMUMoPU8pQyg9QzNbT0hdKVtDQEhdMltDQEBIXShbT0hdKVtDQEhdKFtDQEBdMzRbT0hdKVtDQEBIXShOKFtDSDNdKVtDSDNdKUMoPU8pW0NASF0oQzQ9TylDKD1PKVtOSDJd

> <s_epik_cmdline>
J2VwaWtfcHl0aG9uJywgJy1waHQnLCAnMC41JywgJy1waCcsICc3LjQnLCAnLXRuJywgJzgnLCAnLW1hJywgJzIwMCcsICctaW1hZScsICc8aW5maWxlLm1hZT4nLCAnLW9tYWUnLCAnPG91dGZpbGUubWFlPic=

> <r_epik_Ionization_Penalty>
0.3646

> <r_epik_Ionization_Penalty_Charging>
0.0013

> <r_epik_Ionization_Penalty_Neutral>
0.3633

> <r_epik_State_Penalty>
0.3215

> <r_epik_Charging_Adjusted_Penalty>
0.322822

> <i_epik_Tot_Q>
-1

> <i_epik_Tot_abs_Q>
1

> <s_lp_Force_Field>
OPLS3

> <r_lp_Energy>
57.6623

> <b_lp_Chiralities_Consistent>
1

> <s_lp_Variant>
ligprep_COVID_compounds-withfrags-smallmolecules-forvalidation.maegz:6-4

> <i_glide_original_lignum>
56

> <s_i_glide_gridfile>
glide-grid_5RGK_M-PRO_COVID

> <i_i_glide_lignum>
56

> <r_i_docking_score>
-2.86363436494274

> <r_i_glide_ligand_efficiency>
-0.0867767989376588

> <r_i_glide_ligand_efficiency_sa>
-0.27833956131528

> <r_i_glide_ligand_efficiency_ln>
-0.636857455658053

> <r_glide_XP_GScore>
-3.18513136494274

> <r_i_glide_gscore>
-3.18513136494274

> <r_i_glide_evdw>
-18.877758026123

> <r_i_glide_ecoul>
-6.98660612106323

> <r_i_glide_energy>
-25.8643641471863

> <r_i_glide_einternal>
0.0

> <r_i_glide_emodel>
-27.3377518943521

> <r_glide_XP_HBond>
-0.7

> <i_i_glide_confnum>
1

> <i_i_glide_posenum>
58

> <r_i_glide_eff_state_penalty>
0.321497

> <i_glide_XP_PoseRank>
1

> <r_lp_tautomer_probability>


> <s_epik_Chemistry_Notes>


> <MW>


> <cLogP>


> <TPSA>


> <Rotatable Bonds>


> <Fraction sp3>


> <HBA>


> <HBD>


> <Structure ID>


> <Submission Fragments>


$$$$
ligprep_COVID_compounds-withfrags-smallmolecules-forvalidation.maegz:18
                    3D
 Structure written by MMmdl.
 71 74  0  0  1  0            999 V2000
   -2.5682   -1.5790   23.5356 C   0  0  0  0  0  0
   -2.7588   -0.1310   23.0383 C   0  0  0  0  0  0
   -3.7794   -0.1654   21.8782 C   0  0  0  0  0  0
   -3.3622    0.7229   24.1726 C   0  0  0  0  0  0
   -1.3965    0.4538   22.6217 C   0  0  0  0  0  0
   -1.1363    0.9177   21.3126 C   0  0  0  0  0  0
    0.1277    1.4266   20.9613 C   0  0  0  0  0  0
    1.1940    1.4990   21.8990 C   0  0  0  0  0  0
    2.5248    1.9623   21.5279 N   0  0  0  0  0  0
    2.9258    1.9762   20.2282 C   0  0  0  0  0  0
    2.3401    2.6363   19.3707 O   0  0  0  0  0  0
    4.1949    1.2324   19.8614 C   0  0  0  0  0  0
    4.8046    1.4422   18.6042 C   0  0  0  0  0  0
    5.9385    0.7080   18.2084 C   0  0  0  0  0  0
    6.4822   -0.2670   19.0648 C   0  0  0  0  0  0
    5.8741   -0.5072   20.3112 C   0  0  0  0  0  0
    6.3749   -1.5412   21.1985 C   0  0  0  0  0  0
    6.7749   -2.3640   21.9079 N   0  0  0  0  0  0
    4.7443    0.2363   20.6983 C   0  0  0  0  0  0
    3.3547    2.8057   22.4338 C   0  0  2  0  0  0
    4.3540    2.0268   23.3213 C   0  0  0  0  0  0
    3.9749    1.2233   24.1705 O   0  0  0  0  0  0
    5.6521    2.2366   23.0465 N   0  0  0  0  0  0
    6.8106    1.5571   23.6165 C   0  0  0  0  0  0
    7.5751    2.4633   24.6044 C   0  0  0  0  0  0
    9.0062    2.7541   24.1822 C   0  0  0  0  0  0
    9.3669    4.0525   23.7652 C   0  0  0  0  0  0
   10.6903    4.3283   23.3707 C   0  0  0  0  0  0
   11.6553    3.3034   23.3702 C   0  0  0  0  0  0
   11.3042    2.0098   23.7988 C   0  0  0  0  0  0
   12.2374    1.0307   23.8178 F   0  0  0  0  0  0
    9.9842    1.7361   24.2100 C   0  0  0  0  0  0
    2.5267    3.7868   23.2307 C   0  0  0  0  0  0
    2.2653    3.7433   24.6262 C   0  0  0  0  0  0
    1.4592    4.7248   25.2295 C   0  0  0  0  0  0
    0.9281    5.7416   24.4205 C   0  0  0  0  0  0
    1.1597    5.8186   23.0976 N   0  0  0  0  0  0
    1.9372    4.8700   22.5367 C   0  0  0  0  0  0
    0.9100    1.0469   23.2132 C   0  0  0  0  0  0
   -0.3525    0.5378   23.5672 C   0  0  0  0  0  0
   -3.5196   -2.0313   23.8170 H   0  0  0  0  0  0
   -1.9205   -1.6312   24.4114 H   0  0  0  0  0  0
   -2.1244   -2.2055   22.7599 H   0  0  0  0  0  0
   -3.4252   -0.7777   21.0478 H   0  0  0  0  0  0
   -3.9915    0.8341   21.4966 H   0  0  0  0  0  0
   -4.7309   -0.5894   22.2018 H   0  0  0  0  0  0
   -4.3393    0.3468   24.4781 H   0  0  0  0  0  0
   -3.4947    1.7585   23.8560 H   0  0  0  0  0  0
   -2.7313    0.7311   25.0622 H   0  0  0  0  0  0
   -1.8929    0.8917   20.5429 H   0  0  0  0  0  0
    0.2344    1.7550   19.9401 H   0  0  0  0  0  0
    4.4028    2.1880   17.9322 H   0  0  0  0  0  0
    6.3790    0.8995   17.2432 H   0  0  0  0  0  0
    7.3463   -0.8403   18.7586 H   0  0  0  0  0  0
    4.2690   -0.0170   21.6335 H   0  0  0  0  0  0
    3.9749    3.4371   21.8032 H   0  0  0  0  0  0
    5.8498    2.9487   22.3432 H   0  0  0  0  0  0
    6.5138    0.6298   24.1080 H   0  0  0  0  0  0
    7.4546    1.2562   22.7893 H   0  0  0  0  0  0
    7.0429    3.4026   24.7630 H   0  0  0  0  0  0
    7.6114    1.9830   25.5819 H   0  0  0  0  0  0
    8.6279    4.8404   23.7342 H   0  0  0  0  0  0
   10.9560    5.3213   23.0382 H   0  0  0  0  0  0
   12.6668    3.5092   23.0517 H   0  0  0  0  0  0
    9.7187    0.7403   24.5343 H   0  0  0  0  0  0
    2.6577    2.9629   25.2577 H   0  0  0  0  0  0
    1.2505    4.6947   26.2889 H   0  0  0  0  0  0
    0.3022    6.5114   24.8460 H   0  0  0  0  0  0
    2.0929    4.9759   21.4722 H   0  0  0  0  0  0
    1.6561    1.0646   23.9845 H   0  0  0  0  0  0
   -0.5070    0.2022   24.5823 H   0  0  0  0  0  0
  1  2  1  0  0  0
  1 41  1  0  0  0
  1 42  1  0  0  0
  1 43  1  0  0  0
  2  3  1  0  0  0
  2  4  1  0  0  0
  2  5  1  0  0  0
  3 44  1  0  0  0
  3 45  1  0  0  0
  3 46  1  0  0  0
  4 47  1  0  0  0
  4 48  1  0  0  0
  4 49  1  0  0  0
  5  6  2  0  0  0
  5 40  1  0  0  0
  6  7  1  0  0  0
  6 50  1  0  0  0
  7  8  2  0  0  0
  7 51  1  0  0  0
  8  9  1  0  0  0
  8 39  1  0  0  0
  9 10  1  0  0  0
  9 20  1  0  0  0
 10 11  2  0  0  0
 10 12  1  0  0  0
 12 13  2  0  0  0
 12 19  1  0  0  0
 13 14  1  0  0  0
 13 52  1  0  0  0
 14 15  2  0  0  0
 14 53  1  0  0  0
 15 16  1  0  0  0
 15 54  1  0  0  0
 16 17  1  0  0  0
 16 19  2  0  0  0
 17 18  3  0  0  0
 19 55  1  0  0  0
 20 21  1  0  0  0
 20 33  1  0  0  0
 20 56  1  0  0  0
 21 22  2  0  0  0
 21 23  1  0  0  0
 23 24  1  0  0  0
 23 57  1  0  0  0
 24 25  1  0  0  0
 24 58  1  0  0  0
 24 59  1  0  0  0
 25 26  1  0  0  0
 25 60  1  0  0  0
 25 61  1  0  0  0
 26 27  2  0  0  0
 26 32  1  0  0  0
 27 28  1  0  0  0
 27 62  1  0  0  0
 28 29  2  0  0  0
 28 63  1  0  0  0
 29 30  1  0  0  0
 29 64  1  0  0  0
 30 31  1  0  0  0
 30 32  2  0  0  0
 32 65  1  0  0  0
 33 34  2  0  0  0
 33 38  1  0  0  0
 34 35  1  0  0  0
 34 66  1  0  0  0
 35 36  2  0  0  0
 35 67  1  0  0  0
 36 37  1  0  0  0
 36 68  1  0  0  0
 37 38  2  0  0  0
 38 69  1  0  0  0
 39 40  2  0  0  0
 39 70  1  0  0  0
 40 71  1  0  0  0
M  END
> <s_m_entry_id>
3347

> <s_m_entry_name>
Compounds-withfrags-for-validation-docking.1899

> <s_m_Source_Path>
/home/rodolpho/data/melina/maestro/glide-dock_XP_5RGK_M-PRO_VALIDATION

> <s_m_Source_File>
glide-dock_XP_5RGK_M-PRO_VALIDATION_pv.maegz

> <i_m_Source_File_Index>
3347

> <CID>
ALP-POS-02c6a514-33

> <Potency>
99.5

> <pIC50>
4.00218

> <Source>
Postera

> <smiles>
CC(C)(C)c1ccc(N(C(=O)c2cccc(C#N)c2)C(C(=O)NCCc2cccc(F)c2)c2cccnc2)cc1

> <Outcome>
Inactive

> <StandardizerResult>
Clear Stereo (ID: ClearStereo)
Wedge Clean (ID: WedgeClean)
Mesomerize (ID: Mesomerize)
Tautomerize (ID: Tautomerize)
Aromatize (ID: Aromatize)
Add Explicit Hydrogens (ID: AddExplicitH)
Neutralize (ID: Neutralize)
Clean 2D (ID: Clean2D)

> <chiral flag>
0

> <version>
0

> <i_lp_mmshare_version>
41011

> <i_f3d_flags>
0

> <s_epik_input>
TiNDYyhbY0hdMSlbY0hdW2NIXVtjSF1jMUMoPU8pTihjKFtjSF1bY0hdMilbY0hdW2NIXWMyQyhbQ0gzXSkoW0NIM10pW0NIM10pW0NAQEhdKGMzW2NIXVtjSF1bY0hdbltjSF0zKUMoPU8pW05IXVtDSDJdW0NIMl1jNFtjSF1bY0hdW2NIXWMoRilbY0hdNA==

> <s_epik_cmdline>
J2VwaWtfcHl0aG9uJywgJy1waHQnLCAnMC41JywgJy1waCcsICc3LjQnLCAnLXRuJywgJzgnLCAnLW1hJywgJzIwMCcsICctaW1hZScsICc8aW5maWxlLm1hZT4nLCAnLW9tYWUnLCAnPG91dGZpbGUubWFlPic=

> <r_lp_tautomer_probability>
1.0

> <r_epik_Ionization_Penalty>
6.0E-4

> <r_epik_Ionization_Penalty_Charging>
0.0

> <r_epik_Ionization_Penalty_Neutral>
6.0E-4

> <r_epik_State_Penalty>
0.0

> <r_epik_Charging_Adjusted_Penalty>
0.0

> <i_epik_Tot_Q>
0

> <i_epik_Tot_abs_Q>
0

> <s_lp_Force_Field>
OPLS3

> <r_lp_Energy>
81.529

> <b_lp_Chiralities_Consistent>
1

> <s_lp_Variant>
ligprep_COVID_compounds-withfrags-smallmolecules-forvalidation.maegz:18-2

> <i_glide_original_lignum>
130

> <s_i_glide_gridfile>
glide-grid_5RGK_M-PRO_COVID

> <i_i_glide_lignum>
130

> <r_i_docking_score>
-2.82245749662974

> <r_i_glide_ligand_efficiency>
-0.0705614374157434

> <r_i_glide_ligand_efficiency_sa>
-0.241316721190979

> <r_i_glide_ligand_efficiency_ln>
-0.60194712281489

> <r_glide_XP_GScore>
-2.82245749662974

> <r_i_glide_gscore>
-2.82245749662974

> <r_i_glide_evdw>
-34.0662002563477

> <r_i_glide_ecoul>
-7.71816396713257

> <r_i_glide_energy>
-41.7843642234802

> <r_i_glide_einternal>
10.0707426071167

> <r_i_glide_emodel>
-52.7144220887081

> <r_glide_XP_HBond>
-1.575

> <i_i_glide_confnum>
3

> <i_i_glide_posenum>
1

> <r_i_glide_eff_state_penalty>
0.0

> <i_glide_XP_PoseRank>
1

> <MW>
534.24

> <cLogP>
6.14

> <TPSA>
86.09

> <Rotatable Bonds>
8

> <Fraction sp3>
0.21

> <HBA>
4

> <HBD>
1

> <s_epik_Chemistry_Notes>


> <Structure ID>


> <Submission Fragments>


$$$$
ligprep_COVID_compounds-withfrags-smallmolecules-forvalidation.maegz:14
                    3D
 Structure written by MMmdl.
 71 75  0  0  1  0            999 V2000
   -0.1315   -1.2070   25.0260 C   0  0  0  0  0  0
    0.8877   -0.4356   25.9008 C   0  0  0  0  0  0
    1.6082    0.5871   24.9816 C   0  0  0  0  0  0
    0.1267    0.3730   26.9811 C   0  0  0  0  0  0
    1.8545   -1.4388   26.5813 C   0  0  0  0  0  0
    3.2470   -1.3710   26.4096 C   0  0  0  0  0  0
    4.0867   -2.2897   27.0317 C   0  0  0  0  0  0
    3.5432   -3.2992   27.8304 C   0  0  0  0  0  0
    4.3827   -4.2268   28.4839 N   0  0  0  0  0  0
    4.5359   -4.1816   29.8531 C   0  0  0  0  0  0
    4.0171   -3.3132   30.5589 O   0  0  0  0  0  0
    5.3430   -5.1916   30.5091 C   0  0  0  0  0  0
    5.6760   -6.5017   30.1677 C   0  0  0  0  0  0
    6.3700   -7.0449   31.2492 C   0  0  0  0  0  0
    6.3754   -6.0723   32.2327 C   0  0  0  0  0  0
    5.7228   -4.9643   31.7973 O   0  0  0  0  0  0
    4.7698   -5.4190   27.6663 C   0  0  1  0  0  0
    3.8031   -5.8290   26.5085 C   0  0  0  0  0  0
    2.7646   -5.1852   26.3505 O   0  0  0  0  0  0
    4.1068   -6.9126   25.7694 N   0  0  0  0  0  0
    3.2159   -7.5395   24.7954 C   0  0  0  0  0  0
    2.2443   -6.5646   24.0927 C   0  0  0  0  0  0
    1.1612   -7.2527   23.2695 C   0  0  0  0  0  0
   -0.0764   -7.5603   23.8458 C   0  0  0  0  0  0
   -1.0630   -8.1984   23.0935 C   0  0  0  0  0  0
   -0.8157   -8.5381   21.7635 C   0  0  0  0  0  0
    0.4169   -8.2359   21.1840 C   0  0  0  0  0  0
    0.6568   -8.5668   19.8952 F   0  0  0  0  0  0
    1.4020   -7.5926   21.9342 C   0  0  0  0  0  0
    6.2128   -5.4173   27.2368 C   0  0  0  0  0  0
    7.2018   -5.7635   28.0302 N   0  0  0  0  0  0
    8.3491   -5.6292   27.3440 N   0  0  0  0  0  0
    8.1314   -5.1690   26.0635 C   0  0  0  0  0  0
    8.9986   -4.8705   25.0072 C   0  0  0  0  0  0
    8.4150   -4.4060   23.8265 C   0  0  0  0  0  0
    7.0358   -4.2492   23.7000 C   0  0  0  0  0  0
    6.1767   -4.5546   24.7548 C   0  0  0  0  0  0
    6.7269   -5.0196   25.9594 C   0  0  0  0  0  0
    2.1638   -3.3718   28.0252 C   0  0  0  0  0  0
    1.3295   -2.4512   27.3993 C   0  0  0  0  0  0
   -0.8151   -0.5288   24.5126 H   0  0  0  0  0  0
   -0.7471   -1.8888   25.6139 H   0  0  0  0  0  0
    0.3707   -1.8011   24.2608 H   0  0  0  0  0  0
    2.1461    0.0953   24.1697 H   0  0  0  0  0  0
    2.3238    1.1959   25.5364 H   0  0  0  0  0  0
    0.9014    1.2767   24.5174 H   0  0  0  0  0  0
   -0.5468    1.1058   26.5340 H   0  0  0  0  0  0
    0.8154    0.9185   27.6279 H   0  0  0  0  0  0
   -0.4838   -0.2640   27.6218 H   0  0  0  0  0  0
    3.7063   -0.6117   25.7964 H   0  0  0  0  0  0
    5.1554   -2.2186   26.8888 H   0  0  0  0  0  0
    5.4441   -7.0119   29.2453 H   0  0  0  0  0  0
    6.7912   -8.0368   31.3164 H   0  0  0  0  0  0
    6.7642   -6.0338   33.2395 H   0  0  0  0  0  0
    4.6552   -6.2563   28.3566 H   0  0  0  0  0  0
    5.0042   -7.3547   25.9076 H   0  0  0  0  0  0
    3.7971   -8.0941   24.0563 H   0  0  0  0  0  0
    2.6350   -8.2830   25.3424 H   0  0  0  0  0  0
    1.7752   -5.9166   24.8349 H   0  0  0  0  0  0
    2.8079   -5.8923   23.4443 H   0  0  0  0  0  0
   -0.2740   -7.3097   24.8782 H   0  0  0  0  0  0
   -2.0160   -8.4348   23.5428 H   0  0  0  0  0  0
   -1.5782   -9.0359   21.1828 H   0  0  0  0  0  0
    2.3544   -7.3635   21.4786 H   0  0  0  0  0  0
    9.2327   -5.8488   27.7811 H   0  0  0  0  0  0
   10.0690   -4.9866   25.0926 H   0  0  0  0  0  0
    9.0495   -4.1608   22.9874 H   0  0  0  0  0  0
    6.6253   -3.8850   22.7694 H   0  0  0  0  0  0
    5.1100   -4.4308   24.6450 H   0  0  0  0  0  0
    1.7379   -4.1405   28.6541 H   0  0  0  0  0  0
    0.2645   -2.5317   27.5575 H   0  0  0  0  0  0
  1  2  1  0  0  0
  1 41  1  0  0  0
  1 42  1  0  0  0
  1 43  1  0  0  0
  2  3  1  0  0  0
  2  4  1  0  0  0
  2  5  1  0  0  0
  3 44  1  0  0  0
  3 45  1  0  0  0
  3 46  1  0  0  0
  4 47  1  0  0  0
  4 48  1  0  0  0
  4 49  1  0  0  0
  5  6  2  0  0  0
  5 40  1  0  0  0
  6  7  1  0  0  0
  6 50  1  0  0  0
  7  8  2  0  0  0
  7 51  1  0  0  0
  8  9  1  0  0  0
  8 39  1  0  0  0
  9 10  1  0  0  0
  9 17  1  0  0  0
 10 11  2  0  0  0
 10 12  1  0  0  0
 12 13  2  0  0  0
 12 16  1  0  0  0
 13 14  1  0  0  0
 13 52  1  0  0  0
 14 15  2  0  0  0
 14 53  1  0  0  0
 15 16  1  0  0  0
 15 54  1  0  0  0
 17 18  1  0  0  0
 17 55  1  0  0  0
 17 30  1  0  0  0
 18 19  2  0  0  0
 18 20  1  0  0  0
 20 21  1  0  0  0
 20 56  1  0  0  0
 21 22  1  0  0  0
 21 57  1  0  0  0
 21 58  1  0  0  0
 22 23  1  0  0  0
 22 59  1  0  0  0
 22 60  1  0  0  0
 23 24  2  0  0  0
 23 29  1  0  0  0
 24 25  1  0  0  0
 24 61  1  0  0  0
 25 26  2  0  0  0
 25 62  1  0  0  0
 26 27  1  0  0  0
 26 63  1  0  0  0
 27 28  1  0  0  0
 27 29  2  0  0  0
 29 64  1  0  0  0
 30 38  1  0  0  0
 30 31  2  0  0  0
 31 32  1  0  0  0
 32 65  1  0  0  0
 32 33  1  0  0  0
 33 34  1  0  0  0
 33 38  2  0  0  0
 34 66  1  0  0  0
 34 35  2  0  0  0
 35 67  1  0  0  0
 35 36  1  0  0  0
 36 68  1  0  0  0
 36 37  2  0  0  0
 37 69  1  0  0  0
 37 38  1  0  0  0
 39 40  2  0  0  0
 39 70  1  0  0  0
 40 71  1  0  0  0
M  END
> <s_m_entry_id>
3368

> <s_m_entry_name>
Compounds-withfrags-for-validation-docking.1903

> <s_m_Source_Path>
/home/rodolpho/data/melina/maestro/glide-dock_XP_5RGK_M-PRO_VALIDATION

> <s_m_Source_File>
glide-dock_XP_5RGK_M-PRO_VALIDATION_pv.maegz

> <i_m_Source_File_Index>
3368

> <CID>
ALP-POS-02c6a514-48

> <Potency>
99.5

> <pIC50>
4.00218

> <Source>
Postera

> <smiles>
CC(C)(C)c1ccc(N(C(=O)c2ccco2)C(C(=O)NCCc2cccc(F)c2)c2n[nH]c3ccccc23)cc1

> <Outcome>
Inactive

> <StandardizerResult>
Clear Stereo (ID: ClearStereo)
Wedge Clean (ID: WedgeClean)
Mesomerize (ID: Mesomerize)
Tautomerize (ID: Tautomerize)
Aromatize (ID: Aromatize)
Add Explicit Hydrogens (ID: AddExplicitH)
Neutralize (ID: Neutralize)
Clean 2D (ID: Clean2D)

> <chiral flag>
0

> <version>
0

> <i_lp_mmshare_version>
41011

> <i_f3d_flags>
0

> <s_epik_input>
W0NIM11DKFtDSDNdKShbQ0gzXSljMVtjSF1bY0hdYyhbY0hdW2NIXTEpTihDKD1PKWMyW2NIXVtjSF1bY0hdbzIpW0NASF0oYyhbbkhdbjMpYyhjMzQpW2NIXVtjSF1bY0hdW2NIXTQpQyg9TylbTkhdW0NIMl1bQ0gyXWM1W2NIXVtjSF1bY0hdYyhGKVtjSF01

> <s_epik_cmdline>
J2VwaWtfcHl0aG9uJywgJy1waHQnLCAnMC41JywgJy1waCcsICc3LjQnLCAnLXRuJywgJzgnLCAnLW1hJywgJzIwMCcsICctaW1hZScsICc8aW5maWxlLm1hZT4nLCAnLW9tYWUnLCAnPG91dGZpbGUubWFlPic=

> <r_lp_tautomer_probability>
1.0

> <r_epik_Ionization_Penalty>
0.0

> <r_epik_Ionization_Penalty_Charging>
0.0

> <r_epik_Ionization_Penalty_Neutral>
0.0

> <r_epik_State_Penalty>
0.0

> <r_epik_Charging_Adjusted_Penalty>
0.0

> <i_epik_Tot_Q>
0

> <i_epik_Tot_abs_Q>
0

> <s_lp_Force_Field>
OPLS3

> <r_lp_Energy>
64.9114

> <b_lp_Chiralities_Consistent>
1

> <s_lp_Variant>
ligprep_COVID_compounds-withfrags-smallmolecules-forvalidation.maegz:14-1

> <i_glide_original_lignum>
121

> <s_i_glide_gridfile>
glide-grid_5RGK_M-PRO_COVID

> <i_i_glide_lignum>
121

> <r_i_docking_score>
-2.80089310298538

> <r_i_glide_ligand_efficiency>
-0.0700223275746346

> <r_i_glide_ligand_efficiency_sa>
-0.239472991471421

> <r_i_glide_ligand_efficiency_ln>
-0.597348072262325

> <r_glide_XP_GScore>
-2.80089310298538

> <r_i_glide_gscore>
-2.80089310298538

> <r_i_glide_evdw>
-39.4914398193359

> <r_i_glide_ecoul>
-6.06761980056763

> <r_i_glide_energy>
-45.5590596199036

> <r_i_glide_einternal>
4.83544635772705

> <r_i_glide_emodel>
-63.0506485217895

> <r_glide_XP_HBond>
-1.33

> <i_i_glide_confnum>
1

> <i_i_glide_posenum>
40

> <r_i_glide_eff_state_penalty>
0.0

> <i_glide_XP_PoseRank>
1

> <MW>
538.24

> <cLogP>
6.34

> <TPSA>
91.23

> <Rotatable Bonds>
8

> <Fraction sp3>
0.22

> <HBA>
4

> <HBD>
2

> <s_epik_Chemistry_Notes>


> <Structure ID>


> <Submission Fragments>


$$$$
ligprep_COVID_compounds-withfrags-smallmolecules-forvalidation.maegz:8
                    3D
 Structure written by MMmdl.
 42 45  0  0  1  0            999 V2000
    2.5000    2.8669   20.3207 C   0  0  0  0  0  0
    3.5765    1.8364   20.5916 C   0  0  0  0  0  0
    4.4037    1.3864   19.5481 C   0  0  0  0  0  0
    5.4083    0.4327   19.8172 C   0  0  0  0  0  0
    6.2917   -0.0939   18.6924 C   0  0  0  0  0  0
    6.1471    0.6216   17.5737 F   0  0  0  0  0  0
    7.5750   -0.0386   19.0416 F   0  0  0  0  0  0
    5.9749   -1.3611   18.4309 F   0  0  0  0  0  0
    5.6290   -0.0984   21.0454 N   0  0  0  0  0  0
    4.8171    0.3596   22.0435 C   0  0  0  0  0  0
    3.7738    1.3148   21.8899 C   0  0  0  0  0  0
    3.2058    1.4386   23.1882 C   0  0  0  0  0  0
    2.1473    2.2794   23.5392 N   0  0  0  0  0  0
    3.7660    0.6338   24.0501 N   0  0  0  0  0  0
    4.7745   -0.0269   23.3933 N   0  0  0  0  0  0
    5.5749   -0.9637   24.1706 C   0  0  0  0  0  0
    5.1090   -1.3638   25.2416 O   0  0  0  0  0  0
    6.9539   -1.4510   23.6821 C   0  0  2  0  0  0
    7.2340   -2.8884   24.1618 C   0  0  0  0  0  0
    8.6957   -3.2566   23.9109 C   0  0  0  0  0  0
    9.5747   -2.3890   24.6195 O   0  0  0  0  0  0
    9.3128   -1.0367   24.5709 C   0  0  0  0  0  0
   10.3434   -0.1630   24.9714 C   0  0  0  0  0  0
   10.1816    1.2291   24.8822 C   0  0  0  0  0  0
    8.9759    1.7649   24.4030 C   0  0  0  0  0  0
    8.7893    3.4737   24.2612 Cl  0  0  0  0  0  0
    7.9330    0.9040   24.0226 C   0  0  0  0  0  0
    8.0763   -0.5033   24.1201 C   0  0  0  0  0  0
    1.5333    2.5210   20.6828 H   0  0  0  0  0  0
    2.4083    3.0707   19.2539 H   0  0  0  0  0  0
    2.7508    3.8043   20.8195 H   0  0  0  0  0  0
    4.2744    1.7835   18.5501 H   0  0  0  0  0  0
    1.8685    3.0240   22.9174 H   0  0  0  0  0  0
    1.9137    2.4072   24.5131 H   0  0  0  0  0  0
    6.9800   -1.4800   22.5967 H   0  0  0  0  0  0
    7.0482   -2.9893   25.2322 H   0  0  0  0  0  0
    6.5670   -3.5925   23.6601 H   0  0  0  0  0  0
    8.8829   -4.2771   24.2448 H   0  0  0  0  0  0
    8.9239   -3.2343   22.8458 H   0  0  0  0  0  0
   11.2764   -0.5629   25.3353 H   0  0  0  0  0  0
   10.9871    1.8867   25.1645 H   0  0  0  0  0  0
    7.0289    1.3497   23.6402 H   0  0  0  0  0  0
  1  2  1  0  0  0
  1 29  1  0  0  0
  1 30  1  0  0  0
  1 31  1  0  0  0
  2  3  2  0  0  0
  2 11  1  0  0  0
  3  4  1  0  0  0
  3 32  1  0  0  0
  4  5  1  0  0  0
  4  9  2  0  0  0
  5  6  1  0  0  0
  5  7  1  0  0  0
  5  8  1  0  0  0
  9 10  1  0  0  0
 10 11  2  0  0  0
 10 15  1  0  0  0
 11 12  1  0  0  0
 12 13  1  0  0  0
 12 14  2  0  0  0
 13 33  1  0  0  0
 13 34  1  0  0  0
 14 15  1  0  0  0
 15 16  1  0  0  0
 16 17  2  0  0  0
 16 18  1  0  0  0
 18 19  1  0  0  0
 18 28  1  0  0  0
 18 35  1  0  0  0
 19 20  1  0  0  0
 19 36  1  0  0  0
 19 37  1  0  0  0
 20 21  1  0  0  0
 20 38  1  0  0  0
 20 39  1  0  0  0
 21 22  1  0  0  0
 22 23  2  0  0  0
 22 28  1  0  0  0
 23 24  1  0  0  0
 23 40  1  0  0  0
 24 25  2  0  0  0
 24 41  1  0  0  0
 25 26  1  0  0  0
 25 27  1  0  0  0
 27 28  2  0  0  0
 27 42  1  0  0  0
M  END
> <s_m_entry_id>
3369

> <s_m_entry_name>
Compounds-withfrags-for-validation-docking.1909

> <s_m_Source_Path>
/home/rodolpho/data/melina/maestro/glide-dock_XP_5RGK_M-PRO_VALIDATION

> <s_m_Source_File>
glide-dock_XP_5RGK_M-PRO_VALIDATION_pv.maegz

> <i_m_Source_File_Index>
3369

> <CID>
ALP-POS-6495d03e-6

> <Potency>
99.5

> <pIC50>
4.00218

> <Source>
Postera

> <smiles>
Cc1cc(C(F)(F)F)nc2c1c(N)nn2C(=O)C1CCOc2ccc(Cl)cc21

> <Outcome>
Inactive

> <StandardizerResult>
Clear Stereo (ID: ClearStereo)
Wedge Clean (ID: WedgeClean)
Mesomerize (ID: Mesomerize)
Tautomerize (ID: Tautomerize)
Aromatize (ID: Aromatize)
Add Explicit Hydrogens (ID: AddExplicitH)
Neutralize (ID: Neutralize)
Clean 2D (ID: Clean2D)

> <chiral flag>
0

> <version>
0

> <i_lp_mmshare_version>
41011

> <i_f3d_flags>
0

> <s_epik_input>
RkMoRikoRiljKG4xKVtjSF1jKFtDSDNdKWMoYzEyKWMoW05IMl0pbm4yQyg9TylbQ0BIXShbQ0gyXVtDSDJdTzMpYyhjMzQpW2NIXWMoQ2wpW2NIXVtjSF00

> <s_epik_cmdline>
J2VwaWtfcHl0aG9uJywgJy1waHQnLCAnMC41JywgJy1waCcsICc3LjQnLCAnLXRuJywgJzgnLCAnLW1hJywgJzIwMCcsICctaW1hZScsICc8aW5maWxlLm1hZT4nLCAnLW9tYWUnLCAnPG91dGZpbGUubWFlPic=

> <r_lp_tautomer_probability>
1.0

> <r_epik_Ionization_Penalty>
0.0017

> <r_epik_Ionization_Penalty_Charging>
0.0

> <r_epik_Ionization_Penalty_Neutral>
0.0017

> <r_epik_State_Penalty>
0.0

> <r_epik_Charging_Adjusted_Penalty>
0.0

> <i_epik_Tot_Q>
0

> <i_epik_Tot_abs_Q>
0

> <s_lp_Force_Field>
OPLS3

> <r_lp_Energy>
34.6414

> <b_lp_Chiralities_Consistent>
1

> <s_lp_Variant>
ligprep_COVID_compounds-withfrags-smallmolecules-forvalidation.maegz:8-1

> <i_glide_original_lignum>
109

> <s_i_glide_gridfile>
glide-grid_5RGK_M-PRO_COVID

> <i_i_glide_lignum>
109

> <r_i_docking_score>
-2.79938693591375

> <r_i_glide_ligand_efficiency>
-0.0999781048540623

> <r_i_glide_ligand_efficiency_sa>
-0.303592410291664

> <r_i_glide_ligand_efficiency_ln>
-0.646180698380865

> <r_glide_XP_GScore>
-2.79938693591375

> <r_i_glide_gscore>
-2.79938693591375

> <r_i_glide_evdw>
-29.7788696289062

> <r_i_glide_ecoul>
-4.0006365776062

> <r_i_glide_energy>
-33.7795062065125

> <r_i_glide_einternal>
2.80092334747314

> <r_i_glide_emodel>
-39.8253003150398

> <r_glide_XP_HBond>
-0.461245410785186

> <i_i_glide_confnum>
1

> <i_i_glide_posenum>
2

> <r_i_glide_eff_state_penalty>
0.0

> <i_glide_XP_PoseRank>
1

> <MW>
410.08

> <cLogP>
4.2

> <TPSA>
83.03

> <Rotatable Bonds>
1

> <Fraction sp3>
0.28

> <HBA>
6

> <HBD>
1

> <s_epik_Chemistry_Notes>


> <Structure ID>


> <Submission Fragments>


$$$$
ligprep_COVID_compounds-withfrags-smallmolecules-forvalidation.maegz:6
                    3D
 Structure written by MMmdl.
 57 60  0  0  1  0            999 V2000
    2.4028    3.9019   20.5007 C   0  0  0  0  0  0
    2.3288    2.4046   20.8845 C   0  0  1  0  0  0
    3.6497    1.7119   20.4718 C   0  0  0  0  0  0
    3.8966    1.4679   19.1099 C   0  0  0  0  0  0
    5.0544    0.8452   18.6700 C   0  0  0  0  0  0
    6.0064    0.4481   19.5927 C   0  0  0  0  0  0
    5.8083    0.6758   20.9517 C   0  0  0  0  0  0
    6.8233    0.2550   21.7769 O   0  0  0  0  0  0
    4.6319    1.3169   21.4235 C   0  0  0  0  0  0
    4.4346    1.5600   22.9080 C   0  0  0  0  0  0
    5.1844    1.0926   23.7678 O   0  0  0  0  0  0
    3.2954    2.4360   23.2337 C   0  0  0  0  0  0
    2.0285    2.1604   22.4103 C   0  0  1  0  0  0
    0.7786    2.8350   23.0783 C   0  0  1  0  0  0
    1.0599    4.2755   23.6064 C   0  0  1  0  0  0
   -0.2058    5.0861   24.0740 C   0  0  2  0  0  0
   -0.9705    5.5178   22.7820 N   0  3  0  0  0  0
   -2.5018    5.5639   22.9589 C   0  0  0  0  0  0
   -0.4497    6.7971   22.0900 C   0  0  0  0  0  0
    0.1721    6.2801   24.9905 C   0  0  0  0  0  0
   -0.9034    6.8648   25.4030 O   0  5  0  0  0  0
    1.4408    6.6362   25.3705 C   0  0  0  0  0  0
    1.6936    7.8183   26.2024 C   0  0  0  0  0  0
    2.6990    7.7255   27.0821 N   0  0  0  0  0  0
    1.0283    8.8505   26.1251 O   0  0  0  0  0  0
    2.5578    5.7620   24.9230 C   0  0  0  0  0  0
    3.6915    6.2099   24.7307 O   0  0  0  0  0  0
    2.1887    4.2622   24.6870 C   0  0  2  0  0  0
    3.3632    3.3556   24.2366 C   0  0  0  0  0  0
    4.4536    3.5288   25.0455 O   0  0  0  0  0  0
    1.6911    3.7414   25.9152 O   0  0  0  0  0  0
   -0.3914    2.7242   22.2900 O   0  0  0  0  0  0
    1.2396    1.8872   20.1339 O   0  0  0  0  0  0
    3.1438    4.4310   21.1012 H   0  0  0  0  0  0
    1.4444    4.4066   20.6254 H   0  0  0  0  0  0
    2.6850    4.0383   19.4557 H   0  0  0  0  0  0
    3.1714    1.7692   18.3682 H   0  0  0  0  0  0
    5.2131    0.6724   17.6157 H   0  0  0  0  0  0
    6.9078   -0.0362   19.2449 H   0  0  0  0  0  0
    7.5112   -0.2239   21.3097 H   0  0  0  0  0  0
    1.8353    1.0871   22.4996 H   0  0  0  0  0  0
    0.5264    2.2344   23.9541 H   0  0  0  0  0  0
    1.4738    4.8248   22.7640 H   0  0  0  0  0  0
   -0.8614    4.4047   24.6212 H   0  0  0  0  0  0
   -2.7495    6.3876   23.6283 H   0  0  0  0  0  0
   -2.8098    4.6020   23.3700 H   0  0  0  0  0  0
   -2.9326    5.7145   21.9685 H   0  0  0  0  0  0
   -0.7225    7.6539   22.7072 H   0  0  0  0  0  0
   -0.9308    6.8452   21.1126 H   0  0  0  0  0  0
    0.6312    6.7088   21.9853 H   0  0  0  0  0  0
    3.2531    6.8839   27.1367 H   0  0  0  0  0  0
    2.9145    8.5048   27.6860 H   0  0  0  0  0  0
    5.2188    3.7513   24.5097 H   0  0  0  0  0  0
    1.3273    4.4667   26.4285 H   0  0  0  0  0  0
   -1.1225    3.1169   22.7734 H   0  0  0  0  0  0
    1.1490    2.4081   19.3328 H   0  0  0  0  0  0
   -0.8006    4.7657   22.1280 H   0  0  0  0  0  0
  1  2  1  0  0  0
  1 34  1  0  0  0
  1 35  1  0  0  0
  1 36  1  0  0  0
  2  3  1  0  0  0
  2 33  1  0  0  0
  2 13  1  0  0  0
  3  4  2  0  0  0
  3  9  1  0  0  0
  4  5  1  0  0  0
  4 37  1  0  0  0
  5  6  2  0  0  0
  5 38  1  0  0  0
  6  7  1  0  0  0
  6 39  1  0  0  0
  7  8  1  0  0  0
  7  9  2  0  0  0
  8 40  1  0  0  0
  9 10  1  0  0  0
 10 11  2  0  0  0
 10 12  1  0  0  0
 12 13  1  0  0  0
 12 29  2  0  0  0
 13 14  1  0  0  0
 13 41  1  0  0  0
 14 15  1  0  0  0
 14 32  1  0  0  0
 14 42  1  0  0  0
 15 16  1  0  0  0
 15 28  1  0  0  0
 15 43  1  0  0  0
 16 17  1  0  0  0
 16 20  1  0  0  0
 16 44  1  0  0  0
 17 18  1  0  0  0
 17 19  1  0  0  0
 17 57  1  0  0  0
 18 45  1  0  0  0
 18 46  1  0  0  0
 18 47  1  0  0  0
 19 48  1  0  0  0
 19 49  1  0  0  0
 19 50  1  0  0  0
 20 21  1  0  0  0
 20 22  2  0  0  0
 22 23  1  0  0  0
 22 26  1  0  0  0
 23 24  1  0  0  0
 23 25  2  0  0  0
 24 51  1  0  0  0
 24 52  1  0  0  0
 26 27  2  0  0  0
 26 28  1  0  0  0
 28 29  1  0  0  0
 28 31  1  0  0  0
 29 30  1  0  0  0
 30 53  1  0  0  0
 31 54  1  0  0  0
 32 55  1  0  0  0
 33 56  1  0  0  0
M  CHG  2  17   1  21  -1
M  END
> <s_m_entry_id>
3425

> <s_m_entry_name>
Compounds-withfrags-for-validation-docking.1911

> <s_m_Source_Path>
/home/rodolpho/data/melina/maestro/glide-dock_XP_5RGK_M-PRO_VALIDATION

> <s_m_Source_File>
glide-dock_XP_5RGK_M-PRO_VALIDATION_pv.maegz

> <i_m_Source_File_Index>
3425

> <CID>
Oxitetracyclin

> <Potency>
15.15

> <pIC50>
4.81959

> <Source>
https://doi.org/10.1101/2020.03.23.004580

> <smiles>
C(C1(C2=C(C(=C(C(O[H])=C2C(O[H])=C2C1(C(C1(C(N(C([H])([H])[H])C([H])([H])[H])([H])C(=O)C(=C(N([H])[H])O[H])C(=O)C1(C2=O)O[H])[H])(O[H])[H])[H])[H])[H])[H])O[H])([H])([H])[H]

> <Outcome>
Inactive

> <StandardizerResult>
Clear Stereo (ID: ClearStereo)
Wedge Clean (ID: WedgeClean)
Mesomerize (ID: Mesomerize)
Tautomerize (ID: Tautomerize)
Aromatize (ID: Aromatize)
Add Explicit Hydrogens (ID: AddExplicitH)
Neutralize (ID: Neutralize)
Clean 2D (ID: Clean2D)

> <chiral flag>
0

> <version>
0

> <i_lp_mmshare_version>
41011

> <i_f3d_flags>
0

> <s_epik_input>
W09IXWMxW2NIXVtjSF1bY0hdYyhbQ0BAXTIoW0NIM10pW09IXSljMUMoPU8pQyg9QzNbT0hdKVtDQEhdMltDQEhdKFtPSF0pW0NASF0oW0NAQF0zNFtPSF0pW0NASF0oTihbQ0gzXSlbQ0gzXSlDKD1PKVtDQEhdKEM0PU8pQyg9TylbTkgyXQ==

> <s_epik_cmdline>
J2VwaWtfcHl0aG9uJywgJy1waHQnLCAnMC41JywgJy1waCcsICc3LjQnLCAnLXRuJywgJzgnLCAnLW1hJywgJzIwMCcsICctaW1hZScsICc8aW5maWxlLm1hZT4nLCAnLW9tYWUnLCAnPG91dGZpbGUubWFlPic=

> <r_epik_Ionization_Penalty>
0.6144

> <r_epik_Ionization_Penalty_Charging>
0.5087

> <r_epik_Ionization_Penalty_Neutral>
0.1057

> <r_epik_State_Penalty>
0.5157

> <r_epik_Charging_Adjusted_Penalty>
1.02439

> <i_epik_Tot_Q>
0

> <i_epik_Tot_abs_Q>
2

> <s_lp_Force_Field>
OPLS3

> <r_lp_Energy>
51.7603

> <b_lp_Chiralities_Consistent>
1

> <s_lp_Variant>
ligprep_COVID_compounds-withfrags-smallmolecules-forvalidation.maegz:6-43

> <i_glide_original_lignum>
95

> <s_i_glide_gridfile>
glide-grid_5RGK_M-PRO_COVID

> <i_i_glide_lignum>
95

> <r_i_docking_score>
-2.69976106071307

> <r_i_glide_ligand_efficiency>
-0.0818109412337295

> <r_i_glide_ligand_efficiency_sa>
-0.262411402270617

> <r_i_glide_ligand_efficiency_ln>
-0.600412881287935

> <r_glide_XP_GScore>
-3.21546806071307

> <r_i_glide_gscore>
-3.21546806071307

> <r_i_glide_evdw>
-11.7091493606567

> <r_i_glide_ecoul>
-7.4434552192688

> <r_i_glide_energy>
-19.1526045799255

> <r_i_glide_einternal>
2.84068274497986

> <r_i_glide_emodel>
-23.788869498435

> <r_glide_XP_HBond>
-1.55157959113251

> <i_i_glide_confnum>
1

> <i_i_glide_posenum>
14

> <r_i_glide_eff_state_penalty>
0.515707

> <i_glide_XP_PoseRank>
1

> <r_lp_tautomer_probability>


> <s_epik_Chemistry_Notes>


> <MW>


> <cLogP>


> <TPSA>


> <Rotatable Bonds>


> <Fraction sp3>


> <HBA>


> <HBD>


> <Structure ID>


> <Submission Fragments>


$$$$
ligprep_COVID_compounds-withfrags-smallmolecules-forvalidation.maegz:54
                    3D
 Structure written by MMmdl.
 35 37  0  0  1  0            999 V2000
   12.7732    7.6914   25.6826 C   0  0  0  0  0  0
   11.4700    7.6906   26.2365 O   0  0  0  0  0  0
   10.5425    6.8391   25.6797 C   0  0  0  0  0  0
   10.7113    6.1774   24.4265 C   0  0  0  0  0  0
    9.7238    5.2987   23.9192 C   0  0  0  0  0  0
    8.5624    5.0767   24.6876 C   0  0  0  0  0  0
    7.4301    4.2604   24.4940 C   0  0  0  0  0  0
    7.1748    3.4502   23.3710 N   0  0  0  0  0  0
    6.9812    2.1351   23.5185 C   0  0  0  0  0  0
    7.7933    1.3986   24.0806 O   0  0  0  0  0  0
    5.6671    1.5725   22.9685 C   0  0  0  0  0  0
    5.8649    0.6870   21.7580 C   0  0  0  0  0  0
    6.2309   -0.6648   21.9146 C   0  0  0  0  0  0
    6.3742   -1.4896   20.7840 C   0  0  0  0  0  0
    6.1630   -0.9653   19.4951 C   0  0  0  0  0  0
    5.8040    0.3834   19.3393 C   0  0  0  0  0  0
    5.5756    1.0357   17.7671 Cl  0  0  0  0  0  0
    5.6391    1.2037   20.4681 C   0  0  0  0  0  0
    6.5818    4.3972   25.5113 N   0  0  0  0  0  0
    7.1849    5.3198   26.4099 O   0  0  0  0  0  0
    8.4069    5.7419   25.9067 C   0  0  0  0  0  0
    9.3617    6.6269   26.4205 C   0  0  0  0  0  0
   13.4337    8.2981   26.3028 H   0  0  0  0  0  0
   12.7771    8.1133   24.6759 H   0  0  0  0  0  0
   13.1749    6.6774   25.6552 H   0  0  0  0  0  0
   11.5992    6.3280   23.8323 H   0  0  0  0  0  0
    9.8605    4.7988   22.9704 H   0  0  0  0  0  0
    6.5707    3.8942   22.6742 H   0  0  0  0  0  0
    5.1843    0.9902   23.7531 H   0  0  0  0  0  0
    4.9817    2.3862   22.7231 H   0  0  0  0  0  0
    6.3956   -1.0757   22.8999 H   0  0  0  0  0  0
    6.6515   -2.5265   20.9059 H   0  0  0  0  0  0
    6.2775   -1.6009   18.6289 H   0  0  0  0  0  0
    5.3459    2.2353   20.3399 H   0  0  0  0  0  0
    9.2062    7.1123   27.3719 H   0  0  0  0  0  0
  1  2  1  0  0  0
  1 23  1  0  0  0
  1 24  1  0  0  0
  1 25  1  0  0  0
  2  3  1  0  0  0
  3  4  2  0  0  0
  3 22  1  0  0  0
  4  5  1  0  0  0
  4 26  1  0  0  0
  5  6  2  0  0  0
  5 27  1  0  0  0
  6  7  1  0  0  0
  6 21  1  0  0  0
  7  8  1  0  0  0
  7 19  2  0  0  0
  8  9  1  0  0  0
  8 28  1  0  0  0
  9 10  2  0  0  0
  9 11  1  0  0  0
 11 12  1  0  0  0
 11 29  1  0  0  0
 11 30  1  0  0  0
 12 13  2  0  0  0
 12 18  1  0  0  0
 13 14  1  0  0  0
 13 31  1  0  0  0
 14 15  2  0  0  0
 14 32  1  0  0  0
 15 16  1  0  0  0
 15 33  1  0  0  0
 16 17  1  0  0  0
 16 18  2  0  0  0
 18 34  1  0  0  0
 19 20  1  0  0  0
 20 21  1  0  0  0
 21 22  2  0  0  0
 22 35  1  0  0  0
M  END
> <s_m_entry_id>
3430

> <s_m_entry_name>
Compounds-withfrags-for-validation-docking.1863

> <s_m_Source_Path>
/home/rodolpho/data/melina/maestro/glide-dock_XP_5RGK_M-PRO_VALIDATION

> <s_m_Source_File>
glide-dock_XP_5RGK_M-PRO_VALIDATION_pv.maegz

> <i_m_Source_File_Index>
3430

> <CID>
EDJ-MED-c8e7a002-1

> <Potency>
99.5

> <pIC50>
4.00218

> <Source>
Postera

> <smiles>
COc1ccc2c(NC(=O)Cc3cccc(Cl)c3)noc2c1

> <Outcome>
Inactive

> <StandardizerResult>
Clear Stereo (ID: ClearStereo)
Wedge Clean (ID: WedgeClean)
Mesomerize (ID: Mesomerize)
Tautomerize (ID: Tautomerize)
Aromatize (ID: Aromatize)
Add Explicit Hydrogens (ID: AddExplicitH)
Neutralize (ID: Neutralize)
Clean 2D (ID: Clean2D)

> <chiral flag>
0

> <version>
0

> <i_lp_mmshare_version>
41011

> <i_f3d_flags>
0

> <s_epik_input>
W0NIM11PYyhbY0hdW2NIXTEpW2NIXWMoYzEyKW9uYzJbTkhdQyg9TylbQ0gyXWMzW2NIXVtjSF1bY0hdYyhDbClbY0hdMw==

> <s_epik_cmdline>
J2VwaWtfcHl0aG9uJywgJy1waHQnLCAnMC41JywgJy1waCcsICc3LjQnLCAnLXRuJywgJzgnLCAnLW1hJywgJzIwMCcsICctaW1hZScsICc8aW5maWxlLm1hZT4nLCAnLW9tYWUnLCAnPG91dGZpbGUubWFlPic=

> <r_lp_tautomer_probability>
1.0

> <r_epik_Ionization_Penalty>
3.0E-4

> <r_epik_Ionization_Penalty_Charging>
0.0

> <r_epik_Ionization_Penalty_Neutral>
3.0E-4

> <r_epik_State_Penalty>
0.0

> <r_epik_Charging_Adjusted_Penalty>
0.0

> <i_epik_Tot_Q>
0

> <i_epik_Tot_abs_Q>
0

> <s_lp_Force_Field>
OPLS3

> <r_lp_Energy>
26.7929

> <b_lp_Chiralities_Consistent>
1

> <s_lp_Variant>
ligprep_COVID_compounds-withfrags-smallmolecules-forvalidation.maegz:54-1

> <i_glide_original_lignum>
220

> <s_i_glide_gridfile>
glide-grid_5RGK_M-PRO_COVID

> <i_i_glide_lignum>
220

> <r_i_docking_score>
-2.69022072700456

> <r_i_glide_ligand_efficiency>
-0.122282760318389

> <r_i_glide_ligand_efficiency_sa>
-0.342641103520193

> <r_i_glide_ligand_efficiency_ln>
-0.657588073865177

> <r_glide_XP_GScore>
-2.69022072700456

> <r_i_glide_gscore>
-2.69022072700456

> <r_i_glide_evdw>
-28.9200077056885

> <r_i_glide_ecoul>
-6.46062469482422

> <r_i_glide_energy>
-35.3806324005127

> <r_i_glide_einternal>
0.150901213288307

> <r_i_glide_emodel>
-45.0173131393483

> <r_glide_XP_HBond>
-0.35

> <i_i_glide_confnum>
1

> <i_i_glide_posenum>
44

> <r_i_glide_eff_state_penalty>
0.0

> <i_glide_XP_PoseRank>
1

> <MW>
316.06

> <cLogP>
3.67

> <TPSA>
64.36

> <Rotatable Bonds>
4

> <Fraction sp3>
0.12

> <HBA>
4

> <HBD>
1

> <s_epik_Chemistry_Notes>


> <Structure ID>


> <Submission Fragments>


$$$$
ligprep_COVID_compounds-withfrags-smallmolecules-forvalidation.maegz:2
                    3D
 Structure written by MMmdl.
 33 33  0  0  1  0            999 V2000
   11.0122    0.6382   24.9155 C   0  0  0  0  0  0
   11.5430    1.6513   23.9484 C   0  0  0  0  0  0
   11.0071    2.8552   23.5208 C   0  0  0  0  0  0
    9.7500    3.6063   23.8530 C   0  0  0  0  0  0
    8.3961    2.4817   24.3134 S   0  0  0  0  0  0
    7.1928    2.8136   23.0044 C   0  0  0  0  0  0
    6.4518    1.5438   22.5739 C   0  0  0  0  0  0
    5.5896    1.8363   21.4385 N   0  0  0  0  0  0
    5.5099    1.0820   20.2807 C   0  0  0  0  0  0
    4.9425    1.8362   19.2375 N   0  0  0  0  0  0
    5.1798    1.7084   17.8078 C   0  0  0  0  0  0
    5.9585   -0.1376   20.2974 N   0  0  0  0  0  0
    5.9678   -0.8332   19.1750 C   0  0  0  0  0  0
    5.9799   -1.3979   18.1706 N   0  0  0  0  0  0
   11.9338    3.3639   22.6249 N   0  0  0  0  0  0
   12.9534    2.5061   22.5716 C   0  0  0  0  0  0
   12.7749    1.4361   23.3318 N   0  0  0  0  0  0
   10.4603    1.1117   25.7246 H   0  0  0  0  0  0
   11.8166    0.0621   25.3688 H   0  0  0  0  0  0
   10.3394   -0.0618   24.4202 H   0  0  0  0  0  0
    9.9362    4.2905   24.6781 H   0  0  0  0  0  0
    9.4534    4.2333   23.0123 H   0  0  0  0  0  0
    6.4986    3.5721   23.3695 H   0  0  0  0  0  0
    7.7055    3.2287   22.1363 H   0  0  0  0  0  0
    7.1804    0.7722   22.3218 H   0  0  0  0  0  0
    5.8476    1.1550   23.3934 H   0  0  0  0  0  0
    5.4343    2.8497   21.3770 H   0  0  0  0  0  0
    4.8222    2.6063   17.3040 H   0  0  0  0  0  0
    4.6538    0.8484   17.3952 H   0  0  0  0  0  0
    6.2440    1.6022   17.5977 H   0  0  0  0  0  0
   11.8432    4.2225   22.0976 H   0  0  0  0  0  0
   13.8267    2.6533   21.9541 H   0  0  0  0  0  0
    4.6591    2.8162   19.4131 H   0  0  0  0  0  0
  1  2  1  0  0  0
  1 18  1  0  0  0
  1 19  1  0  0  0
  1 20  1  0  0  0
  2  3  2  0  0  0
  2 17  1  0  0  0
  3  4  1  0  0  0
  3 15  1  0  0  0
  4  5  1  0  0  0
  4 21  1  0  0  0
  4 22  1  0  0  0
  5  6  1  0  0  0
  6  7  1  0  0  0
  6 23  1  0  0  0
  6 24  1  0  0  0
  7  8  1  0  0  0
  7 25  1  0  0  0
  7 26  1  0  0  0
  8  9  1  0  0  0
  8 27  1  0  0  0
  9 10  1  0  0  0
  9 12  2  0  0  0
 10 11  1  0  0  0
 10 33  1  0  0  0
 11 28  1  0  0  0
 11 29  1  0  0  0
 11 30  1  0  0  0
 12 13  1  0  0  0
 13 14  3  0  0  0
 15 16  1  0  0  0
 15 31  1  0  0  0
 16 17  2  0  0  0
 16 32  1  0  0  0
M  END
> <s_m_entry_id>
3443

> <s_m_entry_name>
Compounds-withfrags-for-validation-docking.1915

> <s_m_Source_Path>
/home/rodolpho/data/melina/maestro/glide-dock_XP_5RGK_M-PRO_VALIDATION

> <s_m_Source_File>
glide-dock_XP_5RGK_M-PRO_VALIDATION_pv.maegz

> <i_m_Source_File_Index>
3443

> <CID>
Cimetidine

> <pIC50>
4.30103

> <Source>
https://doi.org/10.1101/2020.03.23.004580

> <smiles>
C(C1=C(C(SC(C(N=C(N(C([H])([H])[H])[H])N(C#N)[H])([H])[H])([H])[H])([H])[H])N([H])C([H])=N1)([H])([H])[H]

> <Outcome>
Inactive

> <StandardizerResult>
Clear Stereo (ID: ClearStereo)
Wedge Clean (ID: WedgeClean)
Mesomerize (ID: Mesomerize)
Tautomerize (ID: Tautomerize)
Aromatize (ID: Aromatize)
Add Explicit Hydrogens (ID: AddExplicitH)
Neutralize (ID: Neutralize)
Clean 2D (ID: Clean2D)

> <chiral flag>
0

> <version>
0

> <i_lp_mmshare_version>
41011

> <i_f3d_flags>
1

> <s_epik_input>
bjFbY0hdW25IXWMoYzFbQ0gzXSlbQ0gyXVNbQ0gyXVtDSDJdW05IXS9DKD1OXFtDSDNdKVtOSF1DI04=

> <s_epik_cmdline>
J2VwaWtfcHl0aG9uJywgJy1waHQnLCAnMC41JywgJy1waCcsICc3LjQnLCAnLXRuJywgJzgnLCAnLW1hJywgJzIwMCcsICctaW1hZScsICc8aW5maWxlLm1hZT4nLCAnLW9tYWUnLCAnPG91dGZpbGUubWFlPic=

> <r_lp_tautomer_probability>
0.5

> <r_epik_Ionization_Penalty>
0.3164

> <r_epik_Ionization_Penalty_Charging>
0.3057

> <r_epik_Ionization_Penalty_Neutral>
0.0107

> <r_epik_State_Penalty>
0.4107

> <r_epik_Charging_Adjusted_Penalty>
0.71642

> <i_epik_Tot_Q>
0

> <i_epik_Tot_abs_Q>
0

> <s_lp_Force_Field>
OPLS3

> <r_lp_Energy>
8.42419

> <b_lp_Chiralities_Consistent>
1

> <s_lp_Variant>
ligprep_COVID_compounds-withfrags-smallmolecules-forvalidation.maegz:2-1

> <i_glide_original_lignum>
17

> <s_i_glide_gridfile>
glide-grid_5RGK_M-PRO_COVID

> <i_i_glide_lignum>
17

> <r_i_docking_score>
-2.67308698147431

> <r_i_glide_ligand_efficiency>
-0.15724041067496

> <r_i_glide_ligand_efficiency_sa>
-0.404309372894233

> <r_i_glide_ligand_efficiency_ln>
-0.697348866746278

> <r_glide_XP_GScore>
-3.08376698147431

> <r_i_glide_gscore>
-3.08376698147431

> <r_i_glide_evdw>
-30.1547393798828

> <r_i_glide_ecoul>
-16.815128326416

> <r_i_glide_energy>
-46.9698677062988

> <r_i_glide_einternal>
8.61972808837891

> <r_i_glide_emodel>
-52.594596862793

> <r_glide_XP_HBond>
-1.70332991805461

> <i_i_glide_confnum>
1

> <i_i_glide_posenum>
1

> <r_i_glide_eff_state_penalty>
0.41068

> <i_glide_XP_PoseRank>
1

> <s_epik_Chemistry_Notes>
This compound has an imine and may undergo hydrolysis.

> <Potency>
50.0

> <MW>


> <cLogP>


> <TPSA>


> <Rotatable Bonds>


> <Fraction sp3>


> <HBA>


> <HBD>


> <Structure ID>


> <Submission Fragments>


$$$$
ligprep_COVID_compounds-withfrags-smallmolecules-forvalidation.maegz:6
                    3D
 Structure written by MMmdl.
 56 59  0  0  1  0            999 V2000
    2.3797    4.0469   20.9022 C   0  0  0  0  0  0
    2.1379    2.5188   20.7907 C   0  0  1  0  0  0
    3.4692    1.8383   20.4172 C   0  0  0  0  0  0
    3.8672    1.7733   19.0718 C   0  0  0  0  0  0
    5.0534    1.1689   18.6859 C   0  0  0  0  0  0
    5.8797    0.6146   19.6480 C   0  0  0  0  0  0
    5.5289    0.6683   20.9947 C   0  0  0  0  0  0
    6.4255    0.0903   21.8606 O   0  0  0  0  0  0
    4.3193    1.2853   21.4142 C   0  0  0  0  0  0
    3.9589    1.3623   22.8913 C   0  0  0  0  0  0
    4.7088    0.9252   23.7674 O   0  0  0  0  0  0
    2.6431    1.9765   23.2067 C   0  0  0  0  0  0
    1.5789    1.8751   22.1053 C   0  0  1  0  0  0
    0.1525    2.3816   22.5362 C   0  0  2  0  0  0
   -0.1229    2.4622   24.0765 C   0  0  2  0  0  0
   -1.5292    3.0521   24.5209 C   0  0  2  0  0  0
   -2.6911    2.6206   23.6983 N   0  0  0  0  0  0
   -3.8922    2.2312   24.4420 C   0  0  0  0  0  0
   -3.0393    3.5422   22.6181 C   0  0  0  0  0  0
   -1.4437    4.5734   24.8765 C   0  0  0  0  0  0
   -2.5812    4.9932   25.3272 O   0  5  0  0  0  0
   -0.3144    5.3531   24.8494 C   0  0  0  0  0  0
   -0.3603    6.7867   25.1679 C   0  0  0  0  0  0
    0.6679    7.2769   25.8723 N   0  0  0  0  0  0
   -1.2900    7.5205   24.8336 O   0  0  0  0  0  0
    0.9755    4.6907   24.5305 C   0  0  0  0  0  0
    1.9306    5.3142   24.0568 O   0  0  0  0  0  0
    1.0475    3.1675   24.8344 C   0  0  2  0  0  0
    2.4031    2.5642   24.4074 C   0  0  0  0  0  0
    3.3493    2.7685   25.3758 O   0  0  0  0  0  0
    0.8411    2.9805   26.2369 O   0  0  0  0  0  0
   -0.7920    1.5504   21.8814 O   0  0  0  0  0  0
    1.1592    2.3704   19.7709 O   0  0  0  0  0  0
    3.1040    4.2821   21.6826 H   0  0  0  0  0  0
    1.4731    4.6072   21.1281 H   0  0  0  0  0  0
    2.7756    4.4561   19.9713 H   0  0  0  0  0  0
    3.2439    2.2028   18.3011 H   0  0  0  0  0  0
    5.3306    1.1310   17.6427 H   0  0  0  0  0  0
    6.8026    0.1437   19.3412 H   0  0  0  0  0  0
    7.2260   -0.2083   21.4237 H   0  0  0  0  0  0
    1.4893    0.7979   21.9320 H   0  0  0  0  0  0
   -0.0146    3.3796   22.1375 H   0  0  0  0  0  0
   -0.1250    1.4206   24.4079 H   0  0  0  0  0  0
   -1.6858    2.5843   25.4958 H   0  0  0  0  0  0
   -3.6966    1.3346   25.0316 H   0  0  0  0  0  0
   -4.7239    2.0079   23.7753 H   0  0  0  0  0  0
   -4.2194    3.0124   25.1288 H   0  0  0  0  0  0
   -2.1860    3.6973   21.9566 H   0  0  0  0  0  0
   -3.3523    4.5162   22.9949 H   0  0  0  0  0  0
   -3.8486    3.1368   22.0098 H   0  0  0  0  0  0
    1.4415    6.6794   26.1239 H   0  0  0  0  0  0
    0.6849    8.2524   26.1299 H   0  0  0  0  0  0
    3.7799    3.6134   25.2253 H   0  0  0  0  0  0
    1.5358    3.4440   26.7104 H   0  0  0  0  0  0
   -1.6703    1.8960   22.0648 H   0  0  0  0  0  0
    1.0524    3.2161   19.3289 H   0  0  0  0  0  0
  1  2  1  0  0  0
  1 34  1  0  0  0
  1 35  1  0  0  0
  1 36  1  0  0  0
  2  3  1  0  0  0
  2 33  1  0  0  0
  2 13  1  0  0  0
  3  4  2  0  0  0
  3  9  1  0  0  0
  4  5  1  0  0  0
  4 37  1  0  0  0
  5  6  2  0  0  0
  5 38  1  0  0  0
  6  7  1  0  0  0
  6 39  1  0  0  0
  7  8  1  0  0  0
  7  9  2  0  0  0
  8 40  1  0  0  0
  9 10  1  0  0  0
 10 11  2  0  0  0
 10 12  1  0  0  0
 12 13  1  0  0  0
 12 29  2  0  0  0
 13 14  1  0  0  0
 13 41  1  0  0  0
 14 15  1  0  0  0
 14 32  1  0  0  0
 14 42  1  0  0  0
 15 16  1  0  0  0
 15 28  1  0  0  0
 15 43  1  0  0  0
 16 17  1  0  0  0
 16 20  1  0  0  0
 16 44  1  0  0  0
 17 18  1  0  0  0
 17 19  1  0  0  0
 18 45  1  0  0  0
 18 46  1  0  0  0
 18 47  1  0  0  0
 19 48  1  0  0  0
 19 49  1  0  0  0
 19 50  1  0  0  0
 20 21  1  0  0  0
 20 22  2  0  0  0
 22 23  1  0  0  0
 22 26  1  0  0  0
 23 24  1  0  0  0
 23 25  2  0  0  0
 24 51  1  0  0  0
 24 52  1  0  0  0
 26 27  2  0  0  0
 26 28  1  0  0  0
 28 29  1  0  0  0
 28 31  1  0  0  0
 29 30  1  0  0  0
 30 53  1  0  0  0
 31 54  1  0  0  0
 32 55  1  0  0  0
 33 56  1  0  0  0
M  CHG  1  21  -1
M  END
> <s_m_entry_id>
3445

> <s_m_entry_name>
Compounds-withfrags-for-validation-docking.1911

> <s_m_Source_Path>
/home/rodolpho/data/melina/maestro/glide-dock_XP_5RGK_M-PRO_VALIDATION

> <s_m_Source_File>
glide-dock_XP_5RGK_M-PRO_VALIDATION_pv.maegz

> <i_m_Source_File_Index>
3445

> <CID>
Oxitetracyclin

> <Potency>
15.15

> <pIC50>
4.81959

> <Source>
https://doi.org/10.1101/2020.03.23.004580

> <smiles>
C(C1(C2=C(C(=C(C(O[H])=C2C(O[H])=C2C1(C(C1(C(N(C([H])([H])[H])C([H])([H])[H])([H])C(=O)C(=C(N([H])[H])O[H])C(=O)C1(C2=O)O[H])[H])(O[H])[H])[H])[H])[H])[H])O[H])([H])([H])[H]

> <Outcome>
Inactive

> <StandardizerResult>
Clear Stereo (ID: ClearStereo)
Wedge Clean (ID: WedgeClean)
Mesomerize (ID: Mesomerize)
Tautomerize (ID: Tautomerize)
Aromatize (ID: Aromatize)
Add Explicit Hydrogens (ID: AddExplicitH)
Neutralize (ID: Neutralize)
Clean 2D (ID: Clean2D)

> <chiral flag>
0

> <version>
0

> <i_lp_mmshare_version>
41011

> <i_f3d_flags>
0

> <s_epik_input>
W09IXWMxW2NIXVtjSF1bY0hdYyhbQ0BAXTIoW0NIM10pW09IXSljMUMoPU8pQyg9QzNbT0hdKVtDQEhdMltDQEBIXShbT0hdKVtDQEBIXShbQ0BAXTM0W09IXSlbQ0BIXShOKFtDSDNdKVtDSDNdKUMoPU8pW0NASF0oQzQ9TylDKD1PKVtOSDJd

> <s_epik_cmdline>
J2VwaWtfcHl0aG9uJywgJy1waHQnLCAnMC41JywgJy1waCcsICc3LjQnLCAnLXRuJywgJzgnLCAnLW1hJywgJzIwMCcsICctaW1hZScsICc8aW5maWxlLm1hZT4nLCAnLW9tYWUnLCAnPG91dGZpbGUubWFlPic=

> <r_epik_Ionization_Penalty>
0.3646

> <r_epik_Ionization_Penalty_Charging>
0.0013

> <r_epik_Ionization_Penalty_Neutral>
0.3633

> <r_epik_State_Penalty>
0.3215

> <r_epik_Charging_Adjusted_Penalty>
0.322822

> <i_epik_Tot_Q>
-1

> <i_epik_Tot_abs_Q>
1

> <s_lp_Force_Field>
OPLS3

> <r_lp_Energy>
58.903

> <b_lp_Chiralities_Consistent>
1

> <s_lp_Variant>
ligprep_COVID_compounds-withfrags-smallmolecules-forvalidation.maegz:6-18

> <i_glide_original_lignum>
70

> <s_i_glide_gridfile>
glide-grid_5RGK_M-PRO_COVID

> <i_i_glide_lignum>
70

> <r_i_docking_score>
-2.67190372328235

> <r_i_glide_ligand_efficiency>
-0.0809667794934046

> <r_i_glide_ligand_efficiency_sa>
-0.259703724511612

> <r_i_glide_ligand_efficiency_ln>
-0.594217553680916

> <r_glide_XP_GScore>
-2.99340072328235

> <r_i_glide_gscore>
-2.99340072328235

> <r_i_glide_evdw>
-13.5181665420532

> <r_i_glide_ecoul>
-5.77592849731445

> <r_i_glide_energy>
-19.2940950393677

> <r_i_glide_einternal>
0.0

> <r_i_glide_emodel>
-23.6448892101142

> <r_glide_XP_HBond>
-0.796174705601878

> <i_i_glide_confnum>
1

> <i_i_glide_posenum>
28

> <r_i_glide_eff_state_penalty>
0.321497

> <i_glide_XP_PoseRank>
1

> <r_lp_tautomer_probability>


> <s_epik_Chemistry_Notes>


> <MW>


> <cLogP>


> <TPSA>


> <Rotatable Bonds>


> <Fraction sp3>


> <HBA>


> <HBD>


> <Structure ID>


> <Submission Fragments>


$$$$
ligprep_COVID_compounds-withfrags-smallmolecules-forvalidation.maegz:100
                    3D
 Structure written by MMmdl.
 63 67  0  0  1  0            999 V2000
   13.6808    5.4540   21.8176 C   0  0  0  0  0  0
   12.3610    5.2623   22.3170 O   0  0  0  0  0  0
   12.0043    4.0297   22.8297 C   0  0  0  0  0  0
   12.8887    2.9798   22.5626 C   0  0  0  0  0  0
   12.6605    1.6809   23.0174 C   0  0  0  0  0  0
   11.5012    1.4441   23.7639 C   0  0  0  0  0  0
   11.0318    0.2965   24.3310 N   0  0  0  0  0  0
    9.8480    0.6047   24.9644 N   0  0  0  0  0  0
    9.5919    1.9146   24.7760 N   0  0  0  0  0  0
    8.3977    2.5268   25.3545 C   0  0  0  0  0  0
    7.7129    3.5954   24.4667 C   0  0  0  0  0  0
    7.2860    3.2647   23.3565 O   0  0  0  0  0  0
    7.6160    4.8762   24.9262 N   0  0  0  0  0  0
    8.3570    5.3064   26.1264 C   0  0  0  0  0  0
    9.6625    6.0266   25.8197 C   0  0  0  0  0  0
   10.3675    5.7636   24.6413 C   0  0  0  0  0  0
   11.5733    6.4332   24.4232 C   0  0  0  0  0  0
   12.0454    7.3311   25.3830 C   0  0  0  0  0  0
   11.2897    7.5268   26.5407 C   0  0  0  0  0  0
   10.1153    6.8860   26.7718 N   0  0  0  0  0  0
    6.9454    5.8741   24.1983 C   0  0  0  0  0  0
    5.6668    6.2883   24.5842 C   0  0  0  0  0  0
    5.0084    7.2684   23.8483 C   0  0  0  0  0  0
    5.6188    7.8343   22.7229 C   0  0  0  0  0  0
    4.8965    8.9139   21.9125 C   0  0  0  0  0  0
    5.0926   10.3291   22.5041 C   0  0  0  0  0  0
    4.3432   11.4036   21.6961 C   0  0  0  0  0  0
    4.7797   11.3242   20.2220 N   0  3  0  0  0  0
    4.5260    9.9403   19.5982 C   0  0  0  0  0  0
    5.2750    8.8724   20.4147 C   0  0  0  0  0  0
    6.8962    7.4096   22.3402 C   0  0  0  0  0  0
    7.5589    6.4295   23.0735 C   0  0  0  0  0  0
   10.6036    2.5024   24.0331 C   0  0  0  0  0  0
   10.8327    3.8056   23.5786 C   0  0  0  0  0  0
   13.7846    6.4790   21.4619 H   0  0  0  0  0  0
   13.8914    4.7906   20.9773 H   0  0  0  0  0  0
   14.4300    5.2985   22.5955 H   0  0  0  0  0  0
   13.7806    3.1778   21.9858 H   0  0  0  0  0  0
   13.3596    0.8867   22.7996 H   0  0  0  0  0  0
    7.7004    1.7175   25.5711 H   0  0  0  0  0  0
    8.6651    2.9841   26.3092 H   0  0  0  0  0  0
    7.7227    5.9687   26.7178 H   0  0  0  0  0  0
    8.5843    4.4586   26.7751 H   0  0  0  0  0  0
    9.9879    5.0640   23.9107 H   0  0  0  0  0  0
   12.1376    6.2563   23.5195 H   0  0  0  0  0  0
   12.9760    7.8587   25.2350 H   0  0  0  0  0  0
   11.6253    8.2088   27.3081 H   0  0  0  0  0  0
    5.1858    5.8511   25.4476 H   0  0  0  0  0  0
    4.0225    7.5844   24.1560 H   0  0  0  0  0  0
    3.8304    8.6869   21.9805 H   0  0  0  0  0  0
    4.7418   10.3503   23.5370 H   0  0  0  0  0  0
    6.1524   10.5861   22.5375 H   0  0  0  0  0  0
    3.2616   11.2604   21.7033 H   0  0  0  0  0  0
    4.5759   12.4159   22.0275 H   0  0  0  0  0  0
    4.2862   12.0264   19.6888 H   0  0  0  0  0  0
    3.4446    9.7952   19.6039 H   0  0  0  0  0  0
    4.8764   10.0028   18.5675 H   0  0  0  0  0  0
    6.3489    9.0179   20.2899 H   0  0  0  0  0  0
    5.0510    7.8870   20.0034 H   0  0  0  0  0  0
    7.3806    7.8348   21.4733 H   0  0  0  0  0  0
    8.5440    6.1058   22.7684 H   0  0  0  0  0  0
   10.1324    4.5959   23.8029 H   0  0  0  0  0  0
    5.7645   11.5400   20.1565 H   0  0  0  0  0  0
  1  2  1  0  0  0
  1 35  1  0  0  0
  1 36  1  0  0  0
  1 37  1  0  0  0
  2  3  1  0  0  0
  3  4  2  0  0  0
  3 34  1  0  0  0
  4  5  1  0  0  0
  4 38  1  0  0  0
  5  6  2  0  0  0
  5 39  1  0  0  0
  6  7  1  0  0  0
  6 33  1  0  0  0
  7  8  2  0  0  0
  8  9  1  0  0  0
  9 10  1  0  0  0
  9 33  1  0  0  0
 10 11  1  0  0  0
 10 40  1  0  0  0
 10 41  1  0  0  0
 11 12  2  0  0  0
 11 13  1  0  0  0
 13 14  1  0  0  0
 13 21  1  0  0  0
 14 15  1  0  0  0
 14 42  1  0  0  0
 14 43  1  0  0  0
 15 16  2  0  0  0
 15 20  1  0  0  0
 16 17  1  0  0  0
 16 44  1  0  0  0
 17 18  2  0  0  0
 17 45  1  0  0  0
 18 19  1  0  0  0
 18 46  1  0  0  0
 19 20  2  0  0  0
 19 47  1  0  0  0
 21 22  2  0  0  0
 21 32  1  0  0  0
 22 23  1  0  0  0
 22 48  1  0  0  0
 23 24  2  0  0  0
 23 49  1  0  0  0
 24 25  1  0  0  0
 24 31  1  0  0  0
 25 26  1  0  0  0
 25 30  1  0  0  0
 25 50  1  0  0  0
 26 27  1  0  0  0
 26 51  1  0  0  0
 26 52  1  0  0  0
 27 28  1  0  0  0
 27 53  1  0  0  0
 27 54  1  0  0  0
 28 29  1  0  0  0
 28 55  1  0  0  0
 28 63  1  0  0  0
 29 30  1  0  0  0
 29 56  1  0  0  0
 29 57  1  0  0  0
 30 58  1  0  0  0
 30 59  1  0  0  0
 31 32  2  0  0  0
 31 60  1  0  0  0
 32 61  1  0  0  0
 33 34  2  0  0  0
 34 62  1  0  0  0
M  CHG  1  28   1
M  END
> <s_m_entry_id>
3472

> <s_m_entry_name>
Compounds-withfrags-for-validation-docking.1817

> <s_m_Source_Path>
/home/rodolpho/data/melina/maestro/glide-dock_XP_5RGK_M-PRO_VALIDATION

> <s_m_Source_File>
glide-dock_XP_5RGK_M-PRO_VALIDATION_pv.maegz

> <i_m_Source_File_Index>
3472

> <CID>
ALP-POS-c0c213c9-1

> <Potency>
38.7739

> <pIC50>
4.41146

> <Source>
Postera

> <smiles>
COc1ccc2nnn(CC(=O)N(Cc3ccccn3)c3ccc(C4CCNCC4)cc3)c2c1

> <Outcome>
Inactive

> <StandardizerResult>
Clear Stereo (ID: ClearStereo)
Wedge Clean (ID: WedgeClean)
Mesomerize (ID: Mesomerize)
Tautomerize (ID: Tautomerize)
Aromatize (ID: Aromatize)
Add Explicit Hydrogens (ID: AddExplicitH)
Neutralize (ID: Neutralize)
Clean 2D (ID: Clean2D)

> <chiral flag>
0

> <version>
0

> <i_lp_mmshare_version>
41011

> <i_f3d_flags>
0

> <s_epik_input>
W0NIM11PYyhbY0hdW2NIXTEpW2NIXWMoYzEyKW4obm4yKVtDSDJdQyg9TylOKFtDSDJdYzNbY0hdW2NIXVtjSF1bY0hdbjMpYzRbY0hdW2NIXWMoW2NIXVtjSF00KVtDSF01W0NIMl1bQ0gyXVtOSF1bQ0gyXVtDSDJdNQ==

> <s_epik_cmdline>
J2VwaWtfcHl0aG9uJywgJy1waHQnLCAnMC41JywgJy1waCcsICc3LjQnLCAnLXRuJywgJzgnLCAnLW1hJywgJzIwMCcsICctaW1hZScsICc8aW5maWxlLm1hZT4nLCAnLW9tYWUnLCAnPG91dGZpbGUubWFlPic=

> <r_lp_tautomer_probability>
1.0

> <r_epik_Ionization_Penalty>
0.004

> <r_epik_Ionization_Penalty_Charging>
0.0014

> <r_epik_Ionization_Penalty_Neutral>
0.0026

> <r_epik_State_Penalty>
0.0

> <r_epik_Charging_Adjusted_Penalty>
0.00139498

> <i_epik_Tot_Q>
1

> <i_epik_Tot_abs_Q>
1

> <s_lp_Force_Field>
OPLS3

> <r_lp_Energy>
58.3445

> <b_lp_Chiralities_Consistent>
1

> <s_lp_Variant>
ligprep_COVID_compounds-withfrags-smallmolecules-forvalidation.maegz:100-1

> <i_glide_original_lignum>
289

> <s_i_glide_gridfile>
glide-grid_5RGK_M-PRO_COVID

> <i_i_glide_lignum>
289

> <r_i_docking_score>
-2.62860461798834

> <r_i_glide_ligand_efficiency>
-0.0773119005290688

> <r_i_glide_ligand_efficiency_sa>
-0.250460545038758

> <r_i_glide_ligand_efficiency_ln>
-0.580732489975762

> <r_glide_XP_GScore>
-2.62860461798834

> <r_i_glide_gscore>
-2.62860461798834

> <r_i_glide_evdw>
-39.8710594177246

> <r_i_glide_ecoul>
-3.64323806762695

> <r_i_glide_energy>
-43.5142974853516

> <r_i_glide_einternal>
7.16863489151001

> <r_i_glide_emodel>
-58.0898510598814

> <r_glide_XP_HBond>
0.0

> <i_i_glide_confnum>
1

> <i_i_glide_posenum>
8

> <r_i_glide_eff_state_penalty>
0.0

> <i_glide_XP_PoseRank>
1

> <MW>
456.23

> <cLogP>
3.54

> <TPSA>
85.17

> <Rotatable Bonds>
7

> <Fraction sp3>
0.31

> <HBA>
7

> <HBD>
1

> <Submission Fragments>
x0072

> <s_epik_Chemistry_Notes>


> <Structure ID>


$$$$
ligprep_COVID_compounds-withfrags-smallmolecules-forvalidation.maegz:75
                    3D
 Structure written by MMmdl.
 58 62  0  0  1  0            999 V2000
    9.2813   -1.8148   24.5136 O   0  0  0  0  0  0
    8.4268   -0.9276   24.5707 C   0  0  0  0  0  0
    8.6861    0.3856   24.7322 N   0  0  0  0  0  0
    9.9319    0.9392   24.4293 N   0  0  0  0  0  0
   11.1042    0.2682   24.2530 N   0  0  0  0  0  0
   11.9932    1.1231   23.8480 N   0  0  0  0  0  0
   11.3916    2.3714   23.7708 C   0  0  0  0  0  0
   11.8916    3.6298   23.3637 C   0  0  0  0  0  0
   11.0503    4.7626   23.3708 C   0  0  0  0  0  0
    9.7013    4.6516   23.7704 C   0  0  0  0  0  0
    9.1809    3.4059   24.1728 C   0  0  0  0  0  0
   10.0369    2.2887   24.1707 C   0  0  0  0  0  0
    6.9446   -1.2820   24.3820 C   0  0  1  0  0  0
    6.6503   -1.6709   22.9035 C   0  0  0  0  0  0
    6.0138   -0.5952   22.0169 C   0  0  0  0  0  0
    4.9740    0.2366   22.4938 C   0  0  0  0  0  0
    4.3787    1.1913   21.6454 C   0  0  0  0  0  0
    4.8017    1.3110   20.3077 C   0  0  0  0  0  0
    5.8122    0.4662   19.8142 C   0  0  0  0  0  0
    6.3236    0.6027   18.1709 Cl  0  0  0  0  0  0
    6.4039   -0.4878   20.6636 C   0  0  0  0  0  0
    6.5127   -2.3704   25.3727 C   0  0  0  0  0  0
    6.7856   -3.7407   25.1454 C   0  0  0  0  0  0
    6.2547   -4.7248   26.0068 C   0  0  0  0  0  0
    5.4584   -4.3412   27.1072 C   0  0  0  0  0  0
    4.8040   -5.3122   27.8990 N   0  0  0  0  0  0
    3.4864   -5.7718   27.4472 C   0  0  0  0  0  0
    3.3334   -7.2856   27.6452 C   0  0  0  0  0  0
    3.7451   -7.7445   29.0581 C   0  0  0  0  0  0
    4.3961   -6.6484   29.9215 C   0  0  0  0  0  0
    5.2871   -5.7140   29.0966 C   0  0  0  0  0  0
    6.3749   -5.3637   29.5515 O   0  0  0  0  0  0
    5.2307   -2.9785   27.3706 C   0  0  0  0  0  0
    5.7595   -2.0038   26.5095 C   0  0  0  0  0  0
    7.9531    1.0797   24.7738 H   0  0  0  0  0  0
   12.9184    3.7189   23.0406 H   0  0  0  0  0  0
   11.4353    5.7167   23.0479 H   0  0  0  0  0  0
    9.0608    5.5216   23.7520 H   0  0  0  0  0  0
    8.1418    3.3129   24.4564 H   0  0  0  0  0  0
    6.3643   -0.3991   24.6383 H   0  0  0  0  0  0
    7.5498   -2.0601   22.4247 H   0  0  0  0  0  0
    5.9755   -2.5135   22.8713 H   0  0  0  0  0  0
    4.6097    0.1430   23.5054 H   0  0  0  0  0  0
    3.5994    1.8390   22.0171 H   0  0  0  0  0  0
    4.3566    2.0584   19.6667 H   0  0  0  0  0  0
    7.1747   -1.1379   20.2721 H   0  0  0  0  0  0
    7.3718   -4.0445   24.2902 H   0  0  0  0  0  0
    6.4337   -5.7713   25.8050 H   0  0  0  0  0  0
    2.7176   -5.2399   28.0097 H   0  0  0  0  0  0
    3.3330   -5.5217   26.3961 H   0  0  0  0  0  0
    2.3150   -7.6086   27.4169 H   0  0  0  0  0  0
    3.9773   -7.7755   26.9138 H   0  0  0  0  0  0
    2.8825   -8.1624   29.5802 H   0  0  0  0  0  0
    4.4538   -8.5637   28.9651 H   0  0  0  0  0  0
    3.6227   -6.0370   30.3880 H   0  0  0  0  0  0
    4.9704   -7.0936   30.7328 H   0  0  0  0  0  0
    4.6276   -2.6811   28.2152 H   0  0  0  0  0  0
    5.5442   -0.9663   26.7128 H   0  0  0  0  0  0
  1  2  2  0  0  0
  2  3  1  0  0  0
  2 13  1  0  0  0
  3  4  1  0  0  0
  3 35  1  0  0  0
  4  5  1  0  0  0
  4 12  1  0  0  0
  5  6  2  0  0  0
  6  7  1  0  0  0
  7  8  2  0  0  0
  7 12  1  0  0  0
  8  9  1  0  0  0
  8 36  1  0  0  0
  9 10  2  0  0  0
  9 37  1  0  0  0
 10 11  1  0  0  0
 10 38  1  0  0  0
 11 12  2  0  0  0
 11 39  1  0  0  0
 13 14  1  0  0  0
 13 22  1  0  0  0
 13 40  1  0  0  0
 14 15  1  0  0  0
 14 41  1  0  0  0
 14 42  1  0  0  0
 15 16  2  0  0  0
 15 21  1  0  0  0
 16 17  1  0  0  0
 16 43  1  0  0  0
 17 18  2  0  0  0
 17 44  1  0  0  0
 18 19  1  0  0  0
 18 45  1  0  0  0
 19 20  1  0  0  0
 19 21  2  0  0  0
 21 46  1  0  0  0
 22 23  2  0  0  0
 22 34  1  0  0  0
 23 24  1  0  0  0
 23 47  1  0  0  0
 24 25  2  0  0  0
 24 48  1  0  0  0
 25 26  1  0  0  0
 25 33  1  0  0  0
 26 27  1  0  0  0
 26 31  1  0  0  0
 27 28  1  0  0  0
 27 49  1  0  0  0
 27 50  1  0  0  0
 28 29  1  0  0  0
 28 51  1  0  0  0
 28 52  1  0  0  0
 29 30  1  0  0  0
 29 53  1  0  0  0
 29 54  1  0  0  0
 30 31  1  0  0  0
 30 55  1  0  0  0
 30 56  1  0  0  0
 31 32  2  0  0  0
 33 34  2  0  0  0
 33 57  1  0  0  0
 34 58  1  0  0  0
M  END
> <s_m_entry_id>
3496

> <s_m_entry_name>
Compounds-withfrags-for-validation-docking.1842

> <s_m_Source_Path>
/home/rodolpho/data/melina/maestro/glide-dock_XP_5RGK_M-PRO_VALIDATION

> <s_m_Source_File>
glide-dock_XP_5RGK_M-PRO_VALIDATION_pv.maegz

> <i_m_Source_File_Index>
3496

> <CID>
ALP-POS-a3de0cb1-13

> <Potency>
50.9205

> <pIC50>
4.29311

> <Source>
Postera

> <smiles>
O=C(Nn1nnc2ccccc21)C(Cc1cccc(Cl)c1)c1ccc(N2CCCCC2=O)cc1

> <Outcome>
Inactive

> <StandardizerResult>
Clear Stereo (ID: ClearStereo)
Wedge Clean (ID: WedgeClean)
Mesomerize (ID: Mesomerize)
Tautomerize (ID: Tautomerize)
Aromatize (ID: Aromatize)
Add Explicit Hydrogens (ID: AddExplicitH)
Neutralize (ID: Neutralize)
Clean 2D (ID: Clean2D)

> <chiral flag>
0

> <version>
0

> <i_lp_mmshare_version>
41011

> <i_f3d_flags>
0

> <s_epik_input>
W2NIXTFbY0hdW2NIXVtjSF1jKGMxMiluKG5uMilbTkhdQyg9TylbQ0BASF0oW0NIMl1jM1tjSF1bY0hdW2NIXWMoQ2wpW2NIXTMpYzRbY0hdW2NIXWMoW2NIXVtjSF00KU41W0NIMl1bQ0gyXVtDSDJdW0NIMl1DNT1P

> <s_epik_cmdline>
J2VwaWtfcHl0aG9uJywgJy1waHQnLCAnMC41JywgJy1waCcsICc3LjQnLCAnLXRuJywgJzgnLCAnLW1hJywgJzIwMCcsICctaW1hZScsICc8aW5maWxlLm1hZT4nLCAnLW9tYWUnLCAnPG91dGZpbGUubWFlPic=

> <r_lp_tautomer_probability>
1.0

> <r_epik_Ionization_Penalty>
5.0E-4

> <r_epik_Ionization_Penalty_Charging>
0.0

> <r_epik_Ionization_Penalty_Neutral>
5.0E-4

> <r_epik_State_Penalty>
0.0

> <r_epik_Charging_Adjusted_Penalty>
0.0

> <i_epik_Tot_Q>
0

> <i_epik_Tot_abs_Q>
0

> <s_lp_Force_Field>
OPLS3

> <r_lp_Energy>
51.1183

> <b_lp_Chiralities_Consistent>
1

> <s_lp_Variant>
ligprep_COVID_compounds-withfrags-smallmolecules-forvalidation.maegz:75-2

> <i_glide_original_lignum>
251

> <s_i_glide_gridfile>
glide-grid_5RGK_M-PRO_COVID

> <i_i_glide_lignum>
251

> <r_i_docking_score>
-2.59078223425686

> <r_i_glide_ligand_efficiency>
-0.0761994774781429

> <r_i_glide_ligand_efficiency_sa>
-0.246856726199201

> <r_i_glide_ligand_efficiency_ln>
-0.572376464527549

> <r_glide_XP_GScore>
-2.59078223425686

> <r_i_glide_gscore>
-2.59078223425686

> <r_i_glide_evdw>
-43.3907241821289

> <r_i_glide_ecoul>
-9.61491966247559

> <r_i_glide_energy>
-53.0056438446045

> <r_i_glide_einternal>
10.0845422744751

> <r_i_glide_emodel>
-69.9720416633435

> <r_glide_XP_HBond>
-0.618394289324209

> <i_i_glide_confnum>
2

> <i_i_glide_posenum>
1

> <r_i_glide_eff_state_penalty>
0.0

> <i_glide_XP_PoseRank>
1

> <MW>
473.16

> <cLogP>
4.7

> <TPSA>
80.12

> <Rotatable Bonds>
6

> <Fraction sp3>
0.23

> <HBA>
5

> <HBD>
1

> <s_epik_Chemistry_Notes>


> <Structure ID>


> <Submission Fragments>


$$$$
ligprep_COVID_compounds-withfrags-smallmolecules-forvalidation.maegz:34
                    3D
 Structure written by MMmdl.
 65 69  0  0  1  0            999 V2000
    6.6122   -1.7594   27.1346 O   0  0  0  0  0  0
    6.0964   -2.2135   26.1156 C   0  0  0  0  0  0
    5.0250   -3.0231   26.1558 N   0  0  0  0  0  0
    4.3761   -3.5516   27.3509 C   0  0  0  0  0  0
    4.5290   -5.0826   27.4363 C   0  0  0  0  0  0
    4.0042   -5.8169   26.2105 C   0  0  0  0  0  0
    4.8524   -6.0581   25.1101 C   0  0  0  0  0  0
    4.3731   -6.7402   23.9755 C   0  0  0  0  0  0
    3.0425   -7.1956   23.9402 C   0  0  0  0  0  0
    2.1907   -6.9632   25.0378 C   0  0  0  0  0  0
    0.9093   -7.3961   25.0015 F   0  0  0  0  0  0
    2.6698   -6.2733   26.1691 C   0  0  0  0  0  0
    6.6573   -1.9517   24.6907 C   0  0  2  0  0  0
    7.3408   -3.2334   24.2736 C   0  0  0  0  0  0
    8.2287   -3.9725   25.1006 C   0  0  0  0  0  0
    8.7497   -5.2031   24.6639 C   0  0  0  0  0  0
    8.3747   -5.6709   23.3965 C   0  0  0  0  0  0
    7.5693   -4.9808   22.5706 N   0  0  0  0  0  0
    7.0852   -3.7977   23.0032 C   0  0  0  0  0  0
    7.5012   -0.7473   24.3982 N   0  0  0  0  0  0
    8.6615   -0.4823   25.0723 C   0  0  0  0  0  0
    9.0682   -1.1437   26.0236 O   0  0  0  0  0  0
    9.5585    0.5986   24.6084 C   0  0  0  0  0  0
    9.4241    1.9601   24.5698 C   0  0  0  0  0  0
   10.6379    2.4720   24.0306 C   0  0  0  0  0  0
   11.4456    1.3922   23.8211 C   0  0  0  0  0  0
   10.8041    0.2458   24.1771 O   0  0  0  0  0  0
    7.1823    0.0058   23.1339 C   0  0  1  0  0  0
    6.0478   -0.4327   22.1622 C   0  0  0  0  0  0
    5.6553    1.0445   22.0067 C   0  0  1  0  0  0
    4.1843    1.4383   21.8963 C   0  0  0  0  0  0
    3.3384    1.4357   23.0309 C   0  0  0  0  0  0
    1.9941    1.8362   22.9279 C   0  0  0  0  0  0
    1.1960    1.8147   24.0214 F   0  0  0  0  0  0
    1.4781    2.2501   21.6893 C   0  0  0  0  0  0
    2.3085    2.2535   20.5555 C   0  0  0  0  0  0
    1.8053    2.6609   19.3708 F   0  0  0  0  0  0
    3.6508    1.8364   20.6521 C   0  0  0  0  0  0
    6.4166    1.3188   23.3122 C   0  0  0  0  0  0
    4.6884   -3.3641   25.2665 H   0  0  0  0  0  0
    4.7653   -3.0883   28.2600 H   0  0  0  0  0  0
    3.3178   -3.2906   27.3008 H   0  0  0  0  0  0
    5.5801   -5.3384   27.5759 H   0  0  0  0  0  0
    4.0109   -5.4560   28.3200 H   0  0  0  0  0  0
    5.8779   -5.7234   25.1365 H   0  0  0  0  0  0
    5.0311   -6.9243   23.1382 H   0  0  0  0  0  0
    2.6773   -7.7253   23.0714 H   0  0  0  0  0  0
    2.0112   -6.1000   27.0082 H   0  0  0  0  0  0
    5.7212   -1.8796   24.1655 H   0  0  0  0  0  0
    8.4909   -3.6228   26.0878 H   0  0  0  0  0  0
    9.4106   -5.7848   25.2915 H   0  0  0  0  0  0
    8.7527   -6.6111   23.0230 H   0  0  0  0  0  0
    6.4267   -3.2949   22.3119 H   0  0  0  0  0  0
    8.5584    2.5200   24.8912 H   0  0  0  0  0  0
   10.8933    3.5040   23.8406 H   0  0  0  0  0  0
   12.4517    1.2657   23.4480 H   0  0  0  0  0  0
    8.0747    0.2357   22.5650 H   0  0  0  0  0  0
    6.3959   -0.8902   21.2355 H   0  0  0  0  0  0
    5.1746   -0.9566   22.5368 H   0  0  0  0  0  0
    6.2078    1.4877   21.1749 H   0  0  0  0  0  0
    3.6910    1.1071   23.9941 H   0  0  0  0  0  0
    0.4485    2.5673   21.6083 H   0  0  0  0  0  0
    4.2778    1.8655   19.7722 H   0  0  0  0  0  0
    5.7707    1.3002   24.1707 H   0  0  0  0  0  0
    7.0040    2.2356   23.2723 H   0  0  0  0  0  0
  1  2  2  0  0  0
  2  3  1  0  0  0
  2 13  1  0  0  0
  3  4  1  0  0  0
  3 40  1  0  0  0
  4  5  1  0  0  0
  4 41  1  0  0  0
  4 42  1  0  0  0
  5  6  1  0  0  0
  5 43  1  0  0  0
  5 44  1  0  0  0
  6  7  2  0  0  0
  6 12  1  0  0  0
  7  8  1  0  0  0
  7 45  1  0  0  0
  8  9  2  0  0  0
  8 46  1  0  0  0
  9 10  1  0  0  0
  9 47  1  0  0  0
 10 11  1  0  0  0
 10 12  2  0  0  0
 12 48  1  0  0  0
 13 14  1  0  0  0
 13 20  1  0  0  0
 13 49  1  0  0  0
 14 15  2  0  0  0
 14 19  1  0  0  0
 15 16  1  0  0  0
 15 50  1  0  0  0
 16 17  2  0  0  0
 16 51  1  0  0  0
 17 18  1  0  0  0
 17 52  1  0  0  0
 18 19  2  0  0  0
 19 53  1  0  0  0
 20 21  1  0  0  0
 20 28  1  0  0  0
 21 22  2  0  0  0
 21 23  1  0  0  0
 23 24  2  0  0  0
 23 27  1  0  0  0
 24 25  1  0  0  0
 24 54  1  0  0  0
 25 26  2  0  0  0
 25 55  1  0  0  0
 26 27  1  0  0  0
 26 56  1  0  0  0
 28 29  1  0  0  0
 28 39  1  0  0  0
 28 57  1  0  0  0
 29 30  1  0  0  0
 29 58  1  0  0  0
 29 59  1  0  0  0
 30 31  1  0  0  0
 30 39  1  0  0  0
 30 60  1  0  0  0
 31 32  2  0  0  0
 31 38  1  0  0  0
 32 33  1  0  0  0
 32 61  1  0  0  0
 33 34  1  0  0  0
 33 35  2  0  0  0
 35 36  1  0  0  0
 35 62  1  0  0  0
 36 37  1  0  0  0
 36 38  2  0  0  0
 38 63  1  0  0  0
 39 64  1  0  0  0
 39 65  1  0  0  0
M  END
> <s_m_entry_id>
3500

> <s_m_entry_name>
Compounds-withfrags-for-validation-docking.1883

> <s_m_Source_Path>
/home/rodolpho/data/melina/maestro/glide-dock_XP_5RGK_M-PRO_VALIDATION

> <s_m_Source_File>
glide-dock_XP_5RGK_M-PRO_VALIDATION_pv.maegz

> <i_m_Source_File_Index>
3500

> <CID>
ALP-POS-b0bc6a46-21

> <Potency>
99.5

> <pIC50>
4.00218

> <Source>
Postera

> <smiles>
O=C(NCCc1cccc(F)c1)C(c1cccnc1)N(C(=O)c1ccco1)[C@H]1C[C@H](c2cc(F)cc(F)c2)C1

> <Outcome>
Inactive

> <StandardizerResult>
Clear Stereo (ID: ClearStereo)
Wedge Clean (ID: WedgeClean)
Mesomerize (ID: Mesomerize)
Tautomerize (ID: Tautomerize)
Aromatize (ID: Aromatize)
Add Explicit Hydrogens (ID: AddExplicitH)
Neutralize (ID: Neutralize)
Clean 2D (ID: Clean2D)

> <chiral flag>
0

> <version>
0

> <i_lp_mmshare_version>
41011

> <i_f3d_flags>
0

> <s_epik_input>
RmMoW2NIXTEpW2NIXVtjSF1bY0hdYzFbQ0gyXVtDSDJdW05IXUMoPU8pW0NASF0oYzJbY0hdW2NIXVtjSF1uW2NIXTIpTihDKD1PKWMzW2NIXVtjSF1bY0hdbzMpW0NASF00W0NIMl1bQ0BIXShbQ0gyXTQpYzVbY0hdYyhGKVtjSF1jKEYpW2NIXTU=

> <s_epik_cmdline>
J2VwaWtfcHl0aG9uJywgJy1waHQnLCAnMC41JywgJy1waCcsICc3LjQnLCAnLXRuJywgJzgnLCAnLW1hJywgJzIwMCcsICctaW1hZScsICc8aW5maWxlLm1hZT4nLCAnLW9tYWUnLCAnPG91dGZpbGUubWFlPic=

> <r_lp_tautomer_probability>
1.0

> <r_epik_Ionization_Penalty>
8.0E-4

> <r_epik_Ionization_Penalty_Charging>
0.0

> <r_epik_Ionization_Penalty_Neutral>
8.0E-4

> <r_epik_State_Penalty>
0.0

> <r_epik_Charging_Adjusted_Penalty>
0.0

> <i_epik_Tot_Q>
0

> <i_epik_Tot_abs_Q>
0

> <s_lp_Force_Field>
OPLS3

> <r_lp_Energy>
65.6897

> <b_lp_Chiralities_Consistent>
1

> <s_lp_Variant>
ligprep_COVID_compounds-withfrags-smallmolecules-forvalidation.maegz:34-2

> <i_glide_original_lignum>
170

> <s_i_glide_gridfile>
glide-grid_5RGK_M-PRO_COVID

> <i_i_glide_lignum>
170

> <r_i_docking_score>
-2.58107822527012

> <r_i_glide_ligand_efficiency>
-0.066181492955644

> <r_i_glide_ligand_efficiency_sa>
-0.224435435952864

> <r_i_glide_ligand_efficiency_ln>
-0.553456439760411

> <r_glide_XP_GScore>
-2.58107822527012

> <r_i_glide_gscore>
-2.58107822527012

> <r_i_glide_evdw>
-43.4359474182129

> <r_i_glide_ecoul>
-8.30012702941895

> <r_i_glide_energy>
-51.7360744476318

> <r_i_glide_einternal>
8.33989143371582

> <r_i_glide_emodel>
-55.2430706353331

> <r_glide_XP_HBond>
-0.122564142461431

> <i_i_glide_confnum>
2

> <i_i_glide_posenum>
1

> <r_i_glide_eff_state_penalty>
0.0

> <i_glide_XP_PoseRank>
1

> <MW>
533.19

> <cLogP>
5.58

> <TPSA>
75.44

> <Rotatable Bonds>
9

> <Fraction sp3>
0.23

> <HBA>
4

> <HBD>
1

> <s_epik_Chemistry_Notes>


> <Structure ID>


> <Submission Fragments>


$$$$
ligprep_COVID_compounds-withfrags-smallmolecules-forvalidation.maegz:46
                    3D
 Structure written by MMmdl.
 58 61  0  0  1  0            999 V2000
    3.5245    0.6825   23.8670 O   0  0  0  0  0  0
    4.0308    0.9519   22.7774 C   0  0  0  0  0  0
    3.4502    1.8214   21.9336 N   0  0  0  0  0  0
    2.2749    2.6239   22.2343 C   0  0  0  0  0  0
    2.6290    3.7925   23.1719 C   0  0  0  0  0  0
    1.4250    4.6500   23.5184 C   0  0  0  0  0  0
    1.3638    5.9965   23.0993 C   0  0  0  0  0  0
    0.2476    6.7900   23.4292 C   0  0  0  0  0  0
   -0.8089    6.2392   24.1822 C   0  0  0  0  0  0
   -0.7487    4.8976   24.6076 C   0  0  0  0  0  0
   -1.7631    4.3715   25.3352 F   0  0  0  0  0  0
    0.3664    4.1034   24.2755 C   0  0  0  0  0  0
    5.3840    0.2664   22.4247 C   0  0  1  0  0  0
    5.5805    0.1550   20.9249 C   0  0  0  0  0  0
    5.5568    1.2371   20.0163 C   0  0  0  0  0  0
    5.6639    1.0296   18.6297 C   0  0  0  0  0  0
    5.8596   -0.2824   18.1746 C   0  0  0  0  0  0
    5.9742   -1.3267   19.0110 N   0  0  0  0  0  0
    5.8616   -1.0993   20.3346 C   0  0  0  0  0  0
    6.6299    0.7805   23.0662 N   0  0  0  0  0  0
    7.6649   -0.2659   23.1870 C   0  0  0  0  0  0
    7.6304   -1.1798   24.4125 C   0  0  0  0  0  0
    8.7742   -1.9480   24.7263 C   0  0  0  0  0  0
    8.7445   -2.8825   25.7813 C   0  0  0  0  0  0
    7.5779   -3.0451   26.5497 C   0  0  0  0  0  0
    6.4361   -2.2815   26.2503 C   0  0  0  0  0  0
    6.4602   -1.3641   25.1813 C   0  0  0  0  0  0
    6.8047    2.0445   23.5695 C   0  0  0  0  0  0
    5.8782    2.8252   23.7796 O   0  0  0  0  0  0
    8.1723    2.6027   23.7324 C   0  0  0  0  0  0
    8.6323    3.8402   23.3664 C   0  0  0  0  0  0
   10.0282    3.8578   23.6313 C   0  0  0  0  0  0
   10.3176    2.6383   24.1705 C   0  0  0  0  0  0
    9.1876    1.8937   24.3089 O   0  0  0  0  0  0
    3.9248    2.0273   21.0665 H   0  0  0  0  0  0
    1.8772    3.0108   21.2953 H   0  0  0  0  0  0
    1.5014    1.9879   22.6694 H   0  0  0  0  0  0
    3.0588    3.4207   24.1009 H   0  0  0  0  0  0
    3.4007    4.4104   22.7104 H   0  0  0  0  0  0
    2.1739    6.4243   22.5224 H   0  0  0  0  0  0
    0.2029    7.8204   23.1076 H   0  0  0  0  0  0
   -1.6643    6.8490   24.4395 H   0  0  0  0  0  0
    0.4094    3.0767   24.6101 H   0  0  0  0  0  0
    5.2358   -0.7490   22.7942 H   0  0  0  0  0  0
    5.4279    2.2354   20.3855 H   0  0  0  0  0  0
    5.5926    1.8597   17.9415 H   0  0  0  0  0  0
    5.9465   -0.4967   17.1205 H   0  0  0  0  0  0
    5.9387   -1.9828   20.9528 H   0  0  0  0  0  0
    7.5611   -0.9548   22.3588 H   0  0  0  0  0  0
    8.6630    0.1201   23.0224 H   0  0  0  0  0  0
    9.6795   -1.8437   24.1488 H   0  0  0  0  0  0
    9.6108   -3.4877   25.9964 H   0  0  0  0  0  0
    7.5564   -3.7633   27.3578 H   0  0  0  0  0  0
    5.5322   -2.4103   26.8279 H   0  0  0  0  0  0
    5.5601   -0.8112   24.9646 H   0  0  0  0  0  0
    8.0363    4.6172   22.9052 H   0  0  0  0  0  0
   10.7291    4.6558   23.4375 H   0  0  0  0  0  0
   11.2209    2.1788   24.5439 H   0  0  0  0  0  0
  1  2  2  0  0  0
  2  3  1  0  0  0
  2 13  1  0  0  0
  3  4  1  0  0  0
  3 35  1  0  0  0
  4  5  1  0  0  0
  4 36  1  0  0  0
  4 37  1  0  0  0
  5  6  1  0  0  0
  5 38  1  0  0  0
  5 39  1  0  0  0
  6  7  2  0  0  0
  6 12  1  0  0  0
  7  8  1  0  0  0
  7 40  1  0  0  0
  8  9  2  0  0  0
  8 41  1  0  0  0
  9 10  1  0  0  0
  9 42  1  0  0  0
 10 11  1  0  0  0
 10 12  2  0  0  0
 12 43  1  0  0  0
 13 14  1  0  0  0
 13 20  1  0  0  0
 13 44  1  0  0  0
 14 15  2  0  0  0
 14 19  1  0  0  0
 15 16  1  0  0  0
 15 45  1  0  0  0
 16 17  2  0  0  0
 16 46  1  0  0  0
 17 18  1  0  0  0
 17 47  1  0  0  0
 18 19  2  0  0  0
 19 48  1  0  0  0
 20 21  1  0  0  0
 20 28  1  0  0  0
 21 22  1  0  0  0
 21 49  1  0  0  0
 21 50  1  0  0  0
 22 23  2  0  0  0
 22 27  1  0  0  0
 23 24  1  0  0  0
 23 51  1  0  0  0
 24 25  2  0  0  0
 24 52  1  0  0  0
 25 26  1  0  0  0
 25 53  1  0  0  0
 26 27  2  0  0  0
 26 54  1  0  0  0
 27 55  1  0  0  0
 28 29  2  0  0  0
 28 30  1  0  0  0
 30 31  2  0  0  0
 30 34  1  0  0  0
 31 32  1  0  0  0
 31 56  1  0  0  0
 32 33  2  0  0  0
 32 57  1  0  0  0
 33 34  1  0  0  0
 33 58  1  0  0  0
M  END
> <s_m_entry_id>
3509

> <s_m_entry_name>
Compounds-withfrags-for-validation-docking.1871

> <s_m_Source_Path>
/home/rodolpho/data/melina/maestro/glide-dock_XP_5RGK_M-PRO_VALIDATION

> <s_m_Source_File>
glide-dock_XP_5RGK_M-PRO_VALIDATION_pv.maegz

> <i_m_Source_File_Index>
3509

> <CID>
ALP-POS-b0bc6a46-2

> <Potency>
99.5

> <pIC50>
4.00218

> <Source>
Postera

> <smiles>
O=C(NCCc1cccc(F)c1)C(c1cccnc1)N(Cc1ccccc1)C(=O)c1ccco1

> <Outcome>
Inactive

> <StandardizerResult>
Clear Stereo (ID: ClearStereo)
Wedge Clean (ID: WedgeClean)
Mesomerize (ID: Mesomerize)
Tautomerize (ID: Tautomerize)
Aromatize (ID: Aromatize)
Add Explicit Hydrogens (ID: AddExplicitH)
Neutralize (ID: Neutralize)
Clean 2D (ID: Clean2D)

> <chiral flag>
0

> <version>
0

> <i_lp_mmshare_version>
41011

> <i_f3d_flags>
0

> <s_epik_input>
W2NIXTFbY0hdW2NIXVtjSF1bY0hdYzFbQ0gyXU4oQyg9TyljMltjSF1bY0hdW2NIXW8yKVtDQEhdKGMzW2NIXVtjSF1bY0hdbltjSF0zKUMoPU8pW05IXVtDSDJdW0NIMl1jNFtjSF1bY0hdW2NIXWMoRilbY0hdNA==

> <s_epik_cmdline>
J2VwaWtfcHl0aG9uJywgJy1waHQnLCAnMC41JywgJy1waCcsICc3LjQnLCAnLXRuJywgJzgnLCAnLW1hJywgJzIwMCcsICctaW1hZScsICc8aW5maWxlLm1hZT4nLCAnLW9tYWUnLCAnPG91dGZpbGUubWFlPic=

> <r_lp_tautomer_probability>
1.0

> <r_epik_Ionization_Penalty>
7.0E-4

> <r_epik_Ionization_Penalty_Charging>
0.0

> <r_epik_Ionization_Penalty_Neutral>
7.0E-4

> <r_epik_State_Penalty>
0.0

> <r_epik_Charging_Adjusted_Penalty>
0.0

> <i_epik_Tot_Q>
0

> <i_epik_Tot_abs_Q>
0

> <s_lp_Force_Field>
OPLS3

> <r_lp_Energy>
54.032

> <b_lp_Chiralities_Consistent>
1

> <s_lp_Variant>
ligprep_COVID_compounds-withfrags-smallmolecules-forvalidation.maegz:46-1

> <i_glide_original_lignum>
203

> <s_i_glide_gridfile>
glide-grid_5RGK_M-PRO_COVID

> <i_i_glide_lignum>
203

> <r_i_docking_score>
-2.56676881590396

> <r_i_glide_ligand_efficiency>
-0.0754932004677636

> <r_i_glide_ligand_efficiency_sa>
-0.244568662864095

> <r_i_glide_ligand_efficiency_ln>
-0.567071226859823

> <r_glide_XP_GScore>
-2.56676881590396

> <r_i_glide_gscore>
-2.56676881590396

> <r_i_glide_evdw>
-29.1377010345459

> <r_i_glide_ecoul>
-4.52199459075928

> <r_i_glide_energy>
-33.6596956253052

> <r_i_glide_einternal>
12.0753622055054

> <r_i_glide_emodel>
-52.5617696636887

> <r_glide_XP_HBond>
-0.235180169173073

> <i_i_glide_confnum>
1

> <i_i_glide_posenum>
22

> <r_i_glide_eff_state_penalty>
0.0

> <i_glide_XP_PoseRank>
1

> <MW>
457.18

> <cLogP>
4.56

> <TPSA>
75.44

> <Rotatable Bonds>
9

> <Fraction sp3>
0.15

> <HBA>
4

> <HBD>
1

> <s_epik_Chemistry_Notes>


> <Structure ID>


> <Submission Fragments>


$$$$
ligprep_COVID_compounds-withfrags-smallmolecules-forvalidation.maegz:23
                    3D
 Structure written by MMmdl.
 74 77  0  0  1  0            999 V2000
    5.9715   -0.8191   18.4315 C   0  0  0  0  0  0
    5.1750    0.2084   19.0052 O   0  0  0  0  0  0
    5.3367    0.4988   20.3455 C   0  0  0  0  0  0
    6.3643   -0.0492   21.1398 C   0  0  0  0  0  0
    6.5176    0.2360   22.4420 N   0  0  0  0  0  0
    5.6488    1.0871   23.0074 C   0  0  0  0  0  0
    4.5538    1.7099   22.3563 C   0  0  0  0  0  0
    3.5943    2.6515   23.0827 C   0  0  2  0  0  0
    4.3561    3.4413   24.1860 C   0  0  0  0  0  0
    4.0033    3.4355   25.3662 O   0  0  0  0  0  0
    5.4203    4.1355   23.7707 N   0  0  0  0  0  0
    6.5365    4.6903   24.5200 C   0  0  0  0  0  0
    7.8139    3.9670   24.0300 C   0  0  0  0  0  0
    9.1386    4.6972   24.2008 C   0  0  0  0  0  0
    9.3045    5.7891   25.0833 C   0  0  0  0  0  0
   10.5478    6.4428   25.1658 C   0  0  0  0  0  0
   11.6391    6.0164   24.3759 C   0  0  0  0  0  0
   11.4805    4.9304   23.4924 C   0  0  0  0  0  0
   12.5212    4.5140   22.7217 F   0  0  0  0  0  0
   10.2379    4.2735   23.4162 C   0  0  0  0  0  0
    2.3609    1.9344   23.5291 N   0  0  0  0  0  0
    1.1522    2.0676   22.9101 C   0  0  0  0  0  0
    0.2710    1.2099   23.0028 O   0  0  0  0  0  0
    0.8833    3.2345   22.0374 C   0  0  0  0  0  0
    1.0850    4.5781   22.2220 C   0  0  0  0  0  0
    0.6122    5.2269   21.0470 C   0  0  0  0  0  0
    0.1236    4.2391   20.2437 C   0  0  0  0  0  0
    0.2544    3.0235   20.8431 O   0  0  0  0  0  0
    2.4167    1.0685   24.6710 C   0  0  0  0  0  0
    1.7164    1.4262   25.8492 C   0  0  0  0  0  0
    1.7687    0.6065   26.9942 C   0  0  0  0  0  0
    2.5120   -0.5989   26.9903 C   0  0  0  0  0  0
    2.6133   -1.5125   28.2251 C   0  0  0  0  0  0
    1.9807   -2.8787   27.9021 C   0  0  0  0  0  0
    1.8888   -0.9372   29.4621 C   0  0  0  0  0  0
    4.0939   -1.7132   28.6054 C   0  0  0  0  0  0
    3.1794   -0.9655   25.7973 C   0  0  0  0  0  0
    3.1446   -0.1412   24.6574 C   0  0  0  0  0  0
    4.4284    1.3955   20.9655 C   0  0  0  0  0  0
    3.3206    1.9894   20.1059 C   0  0  0  0  0  0
    5.6631   -0.9613   17.3959 H   0  0  0  0  0  0
    5.8365   -1.7686   18.9475 H   0  0  0  0  0  0
    7.0283   -0.5504   18.4255 H   0  0  0  0  0  0
    7.0903   -0.7394   20.7413 H   0  0  0  0  0  0
    5.8401    1.2538   24.0543 H   0  0  0  0  0  0
    3.3581    3.4550   22.3956 H   0  0  0  0  0  0
    5.5519    4.2387   22.7458 H   0  0  0  0  0  0
    6.5799    5.7523   24.2738 H   0  0  0  0  0  0
    6.4075    4.6011   25.6016 H   0  0  0  0  0  0
    7.8854    2.9877   24.5076 H   0  0  0  0  0  0
    7.7162    3.7699   22.9578 H   0  0  0  0  0  0
    8.4884    6.1346   25.7017 H   0  0  0  0  0  0
   10.6680    7.2802   25.8407 H   0  0  0  0  0  0
   12.5912    6.5238   24.4448 H   0  0  0  0  0  0
   10.1226    3.4479   22.7265 H   0  0  0  0  0  0
    1.5277    5.0404   23.0913 H   0  0  0  0  0  0
    0.6197    6.2817   20.8199 H   0  0  0  0  0  0
   -0.3368    4.2284   19.2680 H   0  0  0  0  0  0
    1.1471    2.3442   25.8840 H   0  0  0  0  0  0
    1.2319    0.9351   27.8713 H   0  0  0  0  0  0
    2.0296   -3.5474   28.7605 H   0  0  0  0  0  0
    2.4807   -3.3822   27.0750 H   0  0  0  0  0  0
    0.9304   -2.7733   27.6328 H   0  0  0  0  0  0
    0.8207   -0.8076   29.2849 H   0  0  0  0  0  0
    2.3060    0.0246   29.7601 H   0  0  0  0  0  0
    1.9900   -1.6050   30.3190 H   0  0  0  0  0  0
    4.1971   -2.3324   29.4982 H   0  0  0  0  0  0
    4.5828   -0.7605   28.8108 H   0  0  0  0  0  0
    4.6593   -2.2054   27.8156 H   0  0  0  0  0  0
    3.7399   -1.8883   25.7456 H   0  0  0  0  0  0
    3.6651   -0.4710   23.7716 H   0  0  0  0  0  0
    2.3948    1.4387   20.2526 H   0  0  0  0  0  0
    3.5567    1.9569   19.0443 H   0  0  0  0  0  0
    3.1531    3.0384   20.3274 H   0  0  0  0  0  0
  1  2  1  0  0  0
  1 41  1  0  0  0
  1 42  1  0  0  0
  1 43  1  0  0  0
  2  3  1  0  0  0
  3  4  2  0  0  0
  3 39  1  0  0  0
  4  5  1  0  0  0
  4 44  1  0  0  0
  5  6  2  0  0  0
  6  7  1  0  0  0
  6 45  1  0  0  0
  7  8  1  0  0  0
  7 39  2  0  0  0
  8  9  1  0  0  0
  8 21  1  0  0  0
  8 46  1  0  0  0
  9 10  2  0  0  0
  9 11  1  0  0  0
 11 12  1  0  0  0
 11 47  1  0  0  0
 12 13  1  0  0  0
 12 48  1  0  0  0
 12 49  1  0  0  0
 13 14  1  0  0  0
 13 50  1  0  0  0
 13 51  1  0  0  0
 14 15  2  0  0  0
 14 20  1  0  0  0
 15 16  1  0  0  0
 15 52  1  0  0  0
 16 17  2  0  0  0
 16 53  1  0  0  0
 17 18  1  0  0  0
 17 54  1  0  0  0
 18 19  1  0  0  0
 18 20  2  0  0  0
 20 55  1  0  0  0
 21 22  1  0  0  0
 21 29  1  0  0  0
 22 23  2  0  0  0
 22 24  1  0  0  0
 24 25  2  0  0  0
 24 28  1  0  0  0
 25 26  1  0  0  0
 25 56  1  0  0  0
 26 27  2  0  0  0
 26 57  1  0  0  0
 27 28  1  0  0  0
 27 58  1  0  0  0
 29 30  2  0  0  0
 29 38  1  0  0  0
 30 31  1  0  0  0
 30 59  1  0  0  0
 31 32  2  0  0  0
 31 60  1  0  0  0
 32 33  1  0  0  0
 32 37  1  0  0  0
 33 34  1  0  0  0
 33 35  1  0  0  0
 33 36  1  0  0  0
 34 61  1  0  0  0
 34 62  1  0  0  0
 34 63  1  0  0  0
 35 64  1  0  0  0
 35 65  1  0  0  0
 35 66  1  0  0  0
 36 67  1  0  0  0
 36 68  1  0  0  0
 36 69  1  0  0  0
 37 38  2  0  0  0
 37 70  1  0  0  0
 38 71  1  0  0  0
 39 40  1  0  0  0
 40 72  1  0  0  0
 40 73  1  0  0  0
 40 74  1  0  0  0
M  END
> <s_m_entry_id>
3562

> <s_m_entry_name>
Compounds-withfrags-for-validation-docking.1894

> <s_m_Source_Path>
/home/rodolpho/data/melina/maestro/glide-dock_XP_5RGK_M-PRO_VALIDATION

> <s_m_Source_File>
glide-dock_XP_5RGK_M-PRO_VALIDATION_pv.maegz

> <i_m_Source_File_Index>
3562

> <CID>
ALP-POS-02c6a514-13

> <Potency>
99.5

> <pIC50>
4.00218

> <Source>
Postera

> <smiles>
COc1cncc(C(C(=O)NCCc2cccc(F)c2)N(C(=O)c2ccco2)c2ccc(C(C)(C)C)cc2)c1C

> <Outcome>
Inactive

> <StandardizerResult>
Clear Stereo (ID: ClearStereo)
Wedge Clean (ID: WedgeClean)
Mesomerize (ID: Mesomerize)
Tautomerize (ID: Tautomerize)
Aromatize (ID: Aromatize)
Add Explicit Hydrogens (ID: AddExplicitH)
Neutralize (ID: Neutralize)
Clean 2D (ID: Clean2D)

> <chiral flag>
0

> <version>
0

> <i_lp_mmshare_version>
41011

> <i_f3d_flags>
0

> <s_epik_input>
W0NIM11PYzFbY0hdbltjSF1jKGMxW0NIM10pW0NAQEhdKE4oQyg9TyljMltjSF1bY0hdW2NIXW8yKWMzW2NIXVtjSF1jKEMoW0NIM10pKFtDSDNdKVtDSDNdKVtjSF1bY0hdMylDKD1PKVtOSF1bQ0gyXVtDSDJdYzRbY0hdW2NIXVtjSF1jKEYpW2NIXTQ=

> <s_epik_cmdline>
J2VwaWtfcHl0aG9uJywgJy1waHQnLCAnMC41JywgJy1waCcsICc3LjQnLCAnLXRuJywgJzgnLCAnLW1hJywgJzIwMCcsICctaW1hZScsICc8aW5maWxlLm1hZT4nLCAnLW9tYWUnLCAnPG91dGZpbGUubWFlPic=

> <r_lp_tautomer_probability>
1.0

> <r_epik_Ionization_Penalty>
0.0014

> <r_epik_Ionization_Penalty_Charging>
0.0

> <r_epik_Ionization_Penalty_Neutral>
0.0014

> <r_epik_State_Penalty>
0.0

> <r_epik_Charging_Adjusted_Penalty>
0.0

> <i_epik_Tot_Q>
0

> <i_epik_Tot_abs_Q>
0

> <s_lp_Force_Field>
OPLS3

> <r_lp_Energy>
77.1839

> <b_lp_Chiralities_Consistent>
1

> <s_lp_Variant>
ligprep_COVID_compounds-withfrags-smallmolecules-forvalidation.maegz:23-1

> <i_glide_original_lignum>
139

> <s_i_glide_gridfile>
glide-grid_5RGK_M-PRO_COVID

> <i_i_glide_lignum>
139

> <r_i_docking_score>
-2.48877815478183

> <r_i_glide_ligand_efficiency>
-0.0622194538695457

> <r_i_glide_ligand_efficiency_sa>
-0.212787538802918

> <r_i_glide_ligand_efficiency_ln>
-0.530783138943404

> <r_glide_XP_GScore>
-2.48877815478183

> <r_i_glide_gscore>
-2.48877815478183

> <r_i_glide_evdw>
-28.4371757507324

> <r_i_glide_ecoul>
-12.4903717041016

> <r_i_glide_energy>
-40.927547454834

> <r_i_glide_einternal>
4.28913974761963

> <r_i_glide_emodel>
-51.8301782424596

> <r_glide_XP_HBond>
-0.555665124901373

> <i_i_glide_confnum>
3

> <i_i_glide_posenum>
18

> <r_i_glide_eff_state_penalty>
0.0

> <i_glide_XP_PoseRank>
1

> <MW>
543.25

> <cLogP>
6.18

> <TPSA>
84.67

> <Rotatable Bonds>
9

> <Fraction sp3>
0.28

> <HBA>
5

> <HBD>
1

> <s_epik_Chemistry_Notes>


> <Structure ID>


> <Submission Fragments>


$$$$
ligprep_COVID_compounds-withfrags-smallmolecules-forvalidation.maegz:76
                    3D
 Structure written by MMmdl.
 58 62  0  0  1  0            999 V2000
    9.6069   -1.3620   24.1871 O   0  0  0  0  0  0
    8.6814   -0.6308   24.5525 C   0  0  0  0  0  0
    8.8152    0.6758   24.8525 N   0  0  0  0  0  0
    9.9115    1.4307   24.4188 N   0  0  0  0  0  0
   11.1730    1.0407   24.1534 C   0  0  0  0  0  0
   11.9729    2.0038   23.6990 N   0  0  0  0  0  0
   11.1353    3.1166   23.7142 C   0  0  0  0  0  0
   11.3995    4.4611   23.3734 C   0  0  0  0  0  0
   10.3905    5.4400   23.5112 C   0  0  0  0  0  0
    9.0972    5.0861   23.9527 C   0  0  0  0  0  0
    8.8026    3.7497   24.2779 C   0  0  0  0  0  0
    9.8213    2.7873   24.1713 C   0  0  0  0  0  0
    7.2399   -1.1729   24.5910 C   0  0  1  0  0  0
    6.7695   -1.6951   23.2051 C   0  0  0  0  0  0
    6.2090   -0.6701   22.2116 C   0  0  0  0  0  0
    5.4515    0.4483   22.6314 C   0  0  0  0  0  0
    4.9230    1.3489   21.6875 C   0  0  0  0  0  0
    5.1273    1.1363   20.3119 C   0  0  0  0  0  0
    5.8583    0.0159   19.8783 C   0  0  0  0  0  0
    6.1186   -0.2363   18.1894 Cl  0  0  0  0  0  0
    6.3758   -0.8912   20.8238 C   0  0  0  0  0  0
    7.0044   -2.2410   25.6626 C   0  0  0  0  0  0
    5.7307   -2.2882   26.2671 C   0  0  0  0  0  0
    5.4060   -3.2917   27.1946 C   0  0  0  0  0  0
    6.3494   -4.2752   27.5630 C   0  0  0  0  0  0
    6.0014   -5.2737   28.5013 N   0  0  0  0  0  0
    6.9724   -6.3420   28.7264 C   0  0  0  0  0  0
    6.3704   -7.4866   29.5494 C   0  0  0  0  0  0
    5.8052   -6.9655   30.7479 O   0  0  0  0  0  0
    4.7379   -6.0682   30.4706 C   0  0  0  0  0  0
    5.2944   -4.8530   29.7151 C   0  0  0  0  0  0
    7.6317   -4.2218   26.9567 C   0  0  0  0  0  0
    7.9529   -3.2274   26.0145 C   0  0  0  0  0  0
    8.0155    1.2487   25.0859 H   0  0  0  0  0  0
   11.5398    0.0377   24.2867 H   0  0  0  0  0  0
   12.3821    4.7407   23.0233 H   0  0  0  0  0  0
   10.6027    6.4690   23.2755 H   0  0  0  0  0  0
    8.3305    5.8435   24.0398 H   0  0  0  0  0  0
    7.8143    3.4762   24.6132 H   0  0  0  0  0  0
    6.6061   -0.3512   24.9052 H   0  0  0  0  0  0
    7.5625   -2.2736   22.7272 H   0  0  0  0  0  0
    5.9767   -2.4148   23.3705 H   0  0  0  0  0  0
    5.2505    0.6377   23.6742 H   0  0  0  0  0  0
    4.3666    2.2164   22.0137 H   0  0  0  0  0  0
    4.7330    1.8413   19.5951 H   0  0  0  0  0  0
    6.9296   -1.7543   20.4796 H   0  0  0  0  0  0
    4.9771   -1.5625   25.9973 H   0  0  0  0  0  0
    4.4070   -3.3015   27.6019 H   0  0  0  0  0  0
    7.3140   -6.7306   27.7708 H   0  0  0  0  0  0
    7.8470   -5.9386   29.2288 H   0  0  0  0  0  0
    5.6161   -8.0182   28.9651 H   0  0  0  0  0  0
    7.1460   -8.2093   29.8025 H   0  0  0  0  0  0
    3.9564   -6.5699   29.8968 H   0  0  0  0  0  0
    4.2905   -5.7485   31.4105 H   0  0  0  0  0  0
    5.9750   -4.3192   30.3771 H   0  0  0  0  0  0
    4.4703   -4.1781   29.4965 H   0  0  0  0  0  0
    8.4017   -4.9399   27.1902 H   0  0  0  0  0  0
    8.9343   -3.2554   25.5648 H   0  0  0  0  0  0
  1  2  2  0  0  0
  2  3  1  0  0  0
  2 13  1  0  0  0
  3  4  1  0  0  0
  3 34  1  0  0  0
  4  5  1  0  0  0
  4 12  1  0  0  0
  5  6  2  0  0  0
  5 35  1  0  0  0
  6  7  1  0  0  0
  7  8  2  0  0  0
  7 12  1  0  0  0
  8  9  1  0  0  0
  8 36  1  0  0  0
  9 10  2  0  0  0
  9 37  1  0  0  0
 10 11  1  0  0  0
 10 38  1  0  0  0
 11 12  2  0  0  0
 11 39  1  0  0  0
 13 14  1  0  0  0
 13 22  1  0  0  0
 13 40  1  0  0  0
 14 15  1  0  0  0
 14 41  1  0  0  0
 14 42  1  0  0  0
 15 16  2  0  0  0
 15 21  1  0  0  0
 16 17  1  0  0  0
 16 43  1  0  0  0
 17 18  2  0  0  0
 17 44  1  0  0  0
 18 19  1  0  0  0
 18 45  1  0  0  0
 19 20  1  0  0  0
 19 21  2  0  0  0
 21 46  1  0  0  0
 22 23  2  0  0  0
 22 33  1  0  0  0
 23 24  1  0  0  0
 23 47  1  0  0  0
 24 25  2  0  0  0
 24 48  1  0  0  0
 25 26  1  0  0  0
 25 32  1  0  0  0
 26 27  1  0  0  0
 26 31  1  0  0  0
 27 28  1  0  0  0
 27 49  1  0  0  0
 27 50  1  0  0  0
 28 29  1  0  0  0
 28 51  1  0  0  0
 28 52  1  0  0  0
 29 30  1  0  0  0
 30 31  1  0  0  0
 30 53  1  0  0  0
 30 54  1  0  0  0
 31 55  1  0  0  0
 31 56  1  0  0  0
 32 33  2  0  0  0
 32 57  1  0  0  0
 33 58  1  0  0  0
M  END
> <s_m_entry_id>
3587

> <s_m_entry_name>
Compounds-withfrags-for-validation-docking.1841

> <s_m_Source_Path>
/home/rodolpho/data/melina/maestro/glide-dock_XP_5RGK_M-PRO_VALIDATION

> <s_m_Source_File>
glide-dock_XP_5RGK_M-PRO_VALIDATION_pv.maegz

> <i_m_Source_File_Index>
3587

> <CID>
ALP-POS-a3de0cb1-12

> <Potency>
99.5

> <pIC50>
4.00218

> <Source>
Postera

> <smiles>
O=C(Nn1cnc2ccccc21)C(Cc1cccc(Cl)c1)c1ccc(N2CCOCC2)cc1

> <Outcome>
Inactive

> <StandardizerResult>
Clear Stereo (ID: ClearStereo)
Wedge Clean (ID: WedgeClean)
Mesomerize (ID: Mesomerize)
Tautomerize (ID: Tautomerize)
Aromatize (ID: Aromatize)
Add Explicit Hydrogens (ID: AddExplicitH)
Neutralize (ID: Neutralize)
Clean 2D (ID: Clean2D)

> <chiral flag>
0

> <version>
0

> <i_lp_mmshare_version>
41011

> <i_f3d_flags>
0

> <s_epik_input>
W2NIXTFbY0hdW2NIXVtjSF1jKGMxMiluKFtjSF1uMilbTkhdQyg9TylbQ0BASF0oW0NIMl1jM1tjSF1bY0hdW2NIXWMoQ2wpW2NIXTMpYzRbY0hdW2NIXWMoW2NIXVtjSF00KU41W0NIMl1bQ0gyXU9bQ0gyXVtDSDJdNQ==

> <s_epik_cmdline>
J2VwaWtfcHl0aG9uJywgJy1waHQnLCAnMC41JywgJy1waCcsICc3LjQnLCAnLXRuJywgJzgnLCAnLW1hJywgJzIwMCcsICctaW1hZScsICc8aW5maWxlLm1hZT4nLCAnLW9tYWUnLCAnPG91dGZpbGUubWFlPic=

> <r_epik_Ionization_Penalty>
0.0115

> <r_epik_Ionization_Penalty_Charging>
0.0

> <r_epik_Ionization_Penalty_Neutral>
0.0115

> <r_epik_State_Penalty>
0.0088

> <r_epik_Charging_Adjusted_Penalty>
0.00881412

> <i_epik_Tot_Q>
0

> <i_epik_Tot_abs_Q>
0

> <s_lp_Force_Field>
OPLS3

> <r_lp_Energy>
39.0074

> <b_lp_Chiralities_Consistent>
1

> <s_lp_Variant>
ligprep_COVID_compounds-withfrags-smallmolecules-forvalidation.maegz:76-2

> <i_glide_original_lignum>
253

> <s_i_glide_gridfile>
glide-grid_5RGK_M-PRO_COVID

> <i_i_glide_lignum>
253

> <r_i_docking_score>
-2.45707545598876

> <r_i_glide_ligand_efficiency>
-0.0744568319996594

> <r_i_glide_ligand_efficiency_sa>
-0.238822844463291

> <r_i_glide_ligand_efficiency_ln>
-0.546440859356059

> <r_glide_XP_GScore>
-2.46588957598876

> <r_i_glide_gscore>
-2.46588957598876

> <r_i_glide_evdw>
-43.5712661743164

> <r_i_glide_ecoul>
-8.78701591491699

> <r_i_glide_energy>
-52.3582820892334

> <r_i_glide_einternal>
5.18511486053467

> <r_i_glide_emodel>
-68.4119104596002

> <r_glide_XP_HBond>
-0.587399021913421

> <i_i_glide_confnum>
4

> <i_i_glide_posenum>
1

> <r_i_glide_eff_state_penalty>
0.00881412

> <i_glide_XP_PoseRank>
1

> <MW>
460.17

> <cLogP>
4.62

> <TPSA>
59.39

> <Rotatable Bonds>
6

> <Fraction sp3>
0.23

> <HBA>
5

> <HBD>
1

> <r_lp_tautomer_probability>


> <s_epik_Chemistry_Notes>


> <Structure ID>


> <Submission Fragments>


$$$$
ligprep_COVID_compounds-withfrags-smallmolecules-forvalidation.maegz:14
                    3D
 Structure written by MMmdl.
 71 75  0  0  1  0            999 V2000
    9.8019    0.0196   24.6621 C   0  0  0  0  0  0
    8.4550   -0.6805   24.9723 C   0  0  0  0  0  0
    8.6521   -2.1970   24.7045 C   0  0  0  0  0  0
    8.1258   -0.5136   26.4763 C   0  0  0  0  0  0
    7.3254   -0.0476   24.1199 C   0  0  0  0  0  0
    7.5185    1.1272   23.3741 C   0  0  0  0  0  0
    6.4835    1.6684   22.6178 C   0  0  0  0  0  0
    5.2372    1.0376   22.5930 C   0  0  0  0  0  0
    4.1694    1.5920   21.8560 N   0  0  0  0  0  0
    4.0879    1.3852   20.4950 C   0  0  0  0  0  0
    3.1737    1.8371   19.8015 O   0  0  0  0  0  0
    5.0973    0.5820   19.8295 C   0  0  0  0  0  0
    5.3104    0.3503   18.4738 C   0  0  0  0  0  0
    6.3424   -0.5835   18.3716 C   0  0  0  0  0  0
    6.6837   -0.9250   19.6680 C   0  0  0  0  0  0
    5.9093   -0.2422   20.5489 O   0  0  0  0  0  0
    3.4239    2.6822   22.5562 C   0  0  2  0  0  0
    3.8911    3.0619   23.9989 C   0  0  0  0  0  0
    3.4516    2.4455   24.9711 O   0  0  0  0  0  0
    4.8259    4.0242   24.1075 N   0  0  0  0  0  0
    5.0442    4.8504   25.2939 C   0  0  0  0  0  0
    6.4164    4.6540   25.9813 C   0  0  0  0  0  0
    7.6136    4.9075   25.0717 C   0  0  0  0  0  0
    7.9063    6.2040   24.6340 C   0  0  0  0  0  0
    8.9906    6.4327   23.7866 C   0  0  0  0  0  0
    9.7876    5.3661   23.3712 C   0  0  0  0  0  0
    9.5022    4.0714   23.8057 C   0  0  0  0  0  0
   10.2743    3.0374   23.4015 F   0  0  0  0  0  0
    8.4193    3.8426   24.6556 C   0  0  0  0  0  0
    1.9357    2.4743   22.4674 C   0  0  0  0  0  0
    1.2668    1.6791   23.2739 N   0  0  0  0  0  0
   -0.0295    1.7333   22.9283 N   0  0  0  0  0  0
   -0.2398    2.5756   21.8584 C   0  0  0  0  0  0
   -1.3949    2.9397   21.1585 C   0  0  0  0  0  0
   -1.2320    3.8347   20.0991 C   0  0  0  0  0  0
    0.0182    4.3439   19.7517 C   0  0  0  0  0  0
    1.1658    3.9794   20.4549 C   0  0  0  0  0  0
    1.0416    3.0814   21.5273 C   0  0  0  0  0  0
    5.0245   -0.1249   23.3343 C   0  0  0  0  0  0
    6.0643   -0.6630   24.0857 C   0  0  0  0  0  0
   10.6240   -0.4232   25.2266 H   0  0  0  0  0  0
    9.7854    1.0802   24.9143 H   0  0  0  0  0  0
   10.0563   -0.0589   23.6040 H   0  0  0  0  0  0
    8.9113   -2.3943   23.6633 H   0  0  0  0  0  0
    7.7547   -2.7708   24.9401 H   0  0  0  0  0  0
    9.4575   -2.6104   25.3135 H   0  0  0  0  0  0
    8.8937   -0.9624   27.1081 H   0  0  0  0  0  0
    7.1779   -0.9900   26.7312 H   0  0  0  0  0  0
    8.0502    0.5343   26.7682 H   0  0  0  0  0  0
    8.4653    1.6436   23.3645 H   0  0  0  0  0  0
    6.6501    2.5764   22.0560 H   0  0  0  0  0  0
    4.7822    0.8128   17.6529 H   0  0  0  0  0  0
    6.7739   -0.9761   17.4627 H   0  0  0  0  0  0
    7.4035   -1.6084   20.0937 H   0  0  0  0  0  0
    3.6586    3.5938   22.0042 H   0  0  0  0  0  0
    5.3839    4.2475   23.2960 H   0  0  0  0  0  0
    4.8907    5.9032   25.0497 H   0  0  0  0  0  0
    4.2566    4.5864   26.0003 H   0  0  0  0  0  0
    6.4834    5.3080   26.8524 H   0  0  0  0  0  0
    6.4841    3.6412   26.3801 H   0  0  0  0  0  0
    7.2882    7.0353   24.9406 H   0  0  0  0  0  0
    9.2077    7.4348   23.4474 H   0  0  0  0  0  0
   10.6252    5.5432   22.7127 H   0  0  0  0  0  0
    8.2027    2.8363   24.9838 H   0  0  0  0  0  0
   -0.7147    1.1905   23.4341 H   0  0  0  0  0  0
   -2.3690    2.5515   21.4171 H   0  0  0  0  0  0
   -2.0987    4.1406   19.5318 H   0  0  0  0  0  0
    0.0995    5.0326   18.9237 H   0  0  0  0  0  0
    2.1293    4.3782   20.1733 H   0  0  0  0  0  0
    4.0599   -0.6118   23.3265 H   0  0  0  0  0  0
    5.8796   -1.5672   24.6461 H   0  0  0  0  0  0
  1  2  1  0  0  0
  1 41  1  0  0  0
  1 42  1  0  0  0
  1 43  1  0  0  0
  2  3  1  0  0  0
  2  4  1  0  0  0
  2  5  1  0  0  0
  3 44  1  0  0  0
  3 45  1  0  0  0
  3 46  1  0  0  0
  4 47  1  0  0  0
  4 48  1  0  0  0
  4 49  1  0  0  0
  5  6  2  0  0  0
  5 40  1  0  0  0
  6  7  1  0  0  0
  6 50  1  0  0  0
  7  8  2  0  0  0
  7 51  1  0  0  0
  8  9  1  0  0  0
  8 39  1  0  0  0
  9 10  1  0  0  0
  9 17  1  0  0  0
 10 11  2  0  0  0
 10 12  1  0  0  0
 12 13  2  0  0  0
 12 16  1  0  0  0
 13 14  1  0  0  0
 13 52  1  0  0  0
 14 15  2  0  0  0
 14 53  1  0  0  0
 15 16  1  0  0  0
 15 54  1  0  0  0
 17 18  1  0  0  0
 17 55  1  0  0  0
 17 30  1  0  0  0
 18 19  2  0  0  0
 18 20  1  0  0  0
 20 21  1  0  0  0
 20 56  1  0  0  0
 21 22  1  0  0  0
 21 57  1  0  0  0
 21 58  1  0  0  0
 22 23  1  0  0  0
 22 59  1  0  0  0
 22 60  1  0  0  0
 23 24  2  0  0  0
 23 29  1  0  0  0
 24 25  1  0  0  0
 24 61  1  0  0  0
 25 26  2  0  0  0
 25 62  1  0  0  0
 26 27  1  0  0  0
 26 63  1  0  0  0
 27 28  1  0  0  0
 27 29  2  0  0  0
 29 64  1  0  0  0
 30 38  1  0  0  0
 30 31  2  0  0  0
 31 32  1  0  0  0
 32 65  1  0  0  0
 32 33  1  0  0  0
 33 34  1  0  0  0
 33 38  2  0  0  0
 34 66  1  0  0  0
 34 35  2  0  0  0
 35 67  1  0  0  0
 35 36  1  0  0  0
 36 68  1  0  0  0
 36 37  2  0  0  0
 37 69  1  0  0  0
 37 38  1  0  0  0
 39 40  2  0  0  0
 39 70  1  0  0  0
 40 71  1  0  0  0
M  END
> <s_m_entry_id>
3629

> <s_m_entry_name>
Compounds-withfrags-for-validation-docking.1903

> <s_m_Source_Path>
/home/rodolpho/data/melina/maestro/glide-dock_XP_5RGK_M-PRO_VALIDATION

> <s_m_Source_File>
glide-dock_XP_5RGK_M-PRO_VALIDATION_pv.maegz

> <i_m_Source_File_Index>
3629

> <CID>
ALP-POS-02c6a514-48

> <Potency>
99.5

> <pIC50>
4.00218

> <Source>
Postera

> <smiles>
CC(C)(C)c1ccc(N(C(=O)c2ccco2)C(C(=O)NCCc2cccc(F)c2)c2n[nH]c3ccccc23)cc1

> <Outcome>
Inactive

> <StandardizerResult>
Clear Stereo (ID: ClearStereo)
Wedge Clean (ID: WedgeClean)
Mesomerize (ID: Mesomerize)
Tautomerize (ID: Tautomerize)
Aromatize (ID: Aromatize)
Add Explicit Hydrogens (ID: AddExplicitH)
Neutralize (ID: Neutralize)
Clean 2D (ID: Clean2D)

> <chiral flag>
0

> <version>
0

> <i_lp_mmshare_version>
41011

> <i_f3d_flags>
0

> <s_epik_input>
W0NIM11DKFtDSDNdKShbQ0gzXSljMVtjSF1bY0hdYyhbY0hdW2NIXTEpTihDKD1PKWMyW2NIXVtjSF1bY0hdbzIpW0NAQEhdKGMoW25IXW4zKWMoYzM0KVtjSF1bY0hdW2NIXVtjSF00KUMoPU8pW05IXVtDSDJdW0NIMl1jNVtjSF1bY0hdW2NIXWMoRilbY0hdNQ==

> <s_epik_cmdline>
J2VwaWtfcHl0aG9uJywgJy1waHQnLCAnMC41JywgJy1waCcsICc3LjQnLCAnLXRuJywgJzgnLCAnLW1hJywgJzIwMCcsICctaW1hZScsICc8aW5maWxlLm1hZT4nLCAnLW9tYWUnLCAnPG91dGZpbGUubWFlPic=

> <r_lp_tautomer_probability>
1.0

> <r_epik_Ionization_Penalty>
0.0

> <r_epik_Ionization_Penalty_Charging>
0.0

> <r_epik_Ionization_Penalty_Neutral>
0.0

> <r_epik_State_Penalty>
0.0

> <r_epik_Charging_Adjusted_Penalty>
0.0

> <i_epik_Tot_Q>
0

> <i_epik_Tot_abs_Q>
0

> <s_lp_Force_Field>
OPLS3

> <r_lp_Energy>
65.4857

> <b_lp_Chiralities_Consistent>
1

> <s_lp_Variant>
ligprep_COVID_compounds-withfrags-smallmolecules-forvalidation.maegz:14-2

> <i_glide_original_lignum>
122

> <s_i_glide_gridfile>
glide-grid_5RGK_M-PRO_COVID

> <i_i_glide_lignum>
122

> <r_i_docking_score>
-2.38964728622285

> <r_i_glide_ligand_efficiency>
-0.0597411821555713

> <r_i_glide_ligand_efficiency_sa>
-0.204311968772889

> <r_i_glide_ligand_efficiency_ln>
-0.509641441971007

> <r_glide_XP_GScore>
-2.38964728622285

> <r_i_glide_gscore>
-2.38964728622285

> <r_i_glide_evdw>
-36.6217193603516

> <r_i_glide_ecoul>
-9.00581645965576

> <r_i_glide_energy>
-45.6275358200073

> <r_i_glide_einternal>
3.89495491981506

> <r_i_glide_emodel>
-62.636581686319

> <r_glide_XP_HBond>
-0.968610067733664

> <i_i_glide_confnum>
1

> <i_i_glide_posenum>
35

> <r_i_glide_eff_state_penalty>
0.0

> <i_glide_XP_PoseRank>
1

> <MW>
538.24

> <cLogP>
6.34

> <TPSA>
91.23

> <Rotatable Bonds>
8

> <Fraction sp3>
0.22

> <HBA>
4

> <HBD>
2

> <s_epik_Chemistry_Notes>


> <Structure ID>


> <Submission Fragments>


$$$$
ligprep_COVID_compounds-withfrags-smallmolecules-forvalidation.maegz:29
                    3D
 Structure written by MMmdl.
 71 75  0  0  1  0            999 V2000
   10.4967    0.6341   25.6029 O   0  0  0  0  0  0
    9.2985    0.7643   25.3477 C   0  0  0  0  0  0
    8.3149    0.2391   26.0974 N   0  0  0  0  0  0
    8.4850   -0.8820   27.0164 C   0  0  0  0  0  0
    7.4362   -1.9931   26.8099 C   0  0  0  0  0  0
    7.9231   -3.0934   25.8799 C   0  0  0  0  0  0
    8.9946   -3.9103   26.2557 C   0  0  0  0  0  0
    9.4401   -4.9210   25.4030 C   0  0  0  0  0  0
    8.8166   -5.1200   24.1709 C   0  0  0  0  0  0
    7.7470   -4.3087   23.7912 C   0  0  0  0  0  0
    7.1424   -4.5017   22.5972 F   0  0  0  0  0  0
    7.3006   -3.2982   24.6439 C   0  0  0  0  0  0
    8.8402    1.5909   24.1114 C   0  0  1  0  0  0
    7.5472    1.1207   23.4339 C   0  0  0  0  0  0
    6.8589    1.9105   22.4937 C   0  0  0  0  0  0
    5.6685    1.4580   21.9230 C   0  0  0  0  0  0
    5.1727    0.2171   22.3170 C   0  0  0  0  0  0
    5.7928   -0.5634   23.2349 N   0  0  0  0  0  0
    6.9496   -0.1051   23.7764 C   0  0  0  0  0  0
    8.8708    3.0657   24.3975 N   0  0  0  0  0  0
    9.8695    3.8729   23.8967 C   0  0  0  0  0  0
    9.8007    5.1037   23.9006 O   0  0  0  0  0  0
   11.0615    3.2782   23.3360 C   0  0  0  0  0  0
   12.2470    3.8696   22.9112 C   0  0  0  0  0  0
   13.1293    2.8373   22.5893 C   0  0  0  0  0  0
   12.4703    1.6583   22.8895 C   0  0  0  0  0  0
   11.2315    1.9272   23.3749 O   0  0  0  0  0  0
    7.6843    3.5796   25.1383 C   0  0  1  0  0  0
    7.9150    3.7855   26.6559 C   0  0  0  0  0  0
    6.6064    4.1094   27.3995 C   0  0  0  0  0  0
    5.8862    5.3243   26.7849 C   0  0  0  0  0  0
    5.6494    5.1494   25.2643 C   0  0  1  0  0  0
    4.9253    6.3438   24.6378 C   0  0  0  0  0  0
    5.0819    7.6266   25.1780 C   0  0  0  0  0  0
    4.4222    8.7178   24.6115 C   0  0  0  0  0  0
    3.5988    8.5372   23.5005 C   0  0  0  0  0  0
    2.9620    9.5980   22.9538 F   0  0  0  0  0  0
    3.4327    7.2628   22.9570 C   0  0  0  0  0  0
    2.6338    7.0820   21.8807 F   0  0  0  0  0  0
    4.0915    6.1714   23.5246 C   0  0  0  0  0  0
    6.9618    4.8067   24.5176 C   0  0  0  0  0  0
    7.3774    0.5992   25.9929 H   0  0  0  0  0  0
    9.4955   -1.2888   26.9364 H   0  0  0  0  0  0
    8.4004   -0.4880   28.0300 H   0  0  0  0  0  0
    7.1630   -2.4334   27.7706 H   0  0  0  0  0  0
    6.5125   -1.5729   26.4082 H   0  0  0  0  0  0
    9.4832   -3.7627   27.2083 H   0  0  0  0  0  0
   10.2680   -5.5495   25.6970 H   0  0  0  0  0  0
    9.1618   -5.9024   23.5112 H   0  0  0  0  0  0
    6.4707   -2.6756   24.3426 H   0  0  0  0  0  0
    9.6144    1.3926   23.3732 H   0  0  0  0  0  0
    7.2334    2.8786   22.1966 H   0  0  0  0  0  0
    5.1421    2.0578   21.1951 H   0  0  0  0  0  0
    4.2547   -0.1678   21.8981 H   0  0  0  0  0  0
    7.3979   -0.7616   24.5066 H   0  0  0  0  0  0
   12.4454    4.9289   22.8364 H   0  0  0  0  0  0
   14.1345    2.9388   22.2076 H   0  0  0  0  0  0
   12.7455    0.6155   22.8317 H   0  0  0  0  0  0
    6.9171    2.8134   25.0491 H   0  0  0  0  0  0
    8.3739    2.8998   27.0963 H   0  0  0  0  0  0
    8.6236    4.5986   26.8133 H   0  0  0  0  0  0
    5.9475    3.2402   27.3673 H   0  0  0  0  0  0
    6.8143    4.2946   28.4538 H   0  0  0  0  0  0
    4.9354    5.4804   27.2968 H   0  0  0  0  0  0
    6.4855    6.2162   26.9729 H   0  0  0  0  0  0
    4.9807    4.2934   25.1500 H   0  0  0  0  0  0
    5.7144    7.7842   26.0397 H   0  0  0  0  0  0
    4.5490    9.7033   25.0350 H   0  0  0  0  0  0
    3.9491    5.1900   23.0963 H   0  0  0  0  0  0
    7.6089    5.6833   24.5239 H   0  0  0  0  0  0
    6.7360    4.6011   23.4707 H   0  0  0  0  0  0
  1  2  2  0  0  0
  2  3  1  0  0  0
  2 13  1  0  0  0
  3  4  1  0  0  0
  3 42  1  0  0  0
  4  5  1  0  0  0
  4 43  1  0  0  0
  4 44  1  0  0  0
  5  6  1  0  0  0
  5 45  1  0  0  0
  5 46  1  0  0  0
  6  7  2  0  0  0
  6 12  1  0  0  0
  7  8  1  0  0  0
  7 47  1  0  0  0
  8  9  2  0  0  0
  8 48  1  0  0  0
  9 10  1  0  0  0
  9 49  1  0  0  0
 10 11  1  0  0  0
 10 12  2  0  0  0
 12 50  1  0  0  0
 13 14  1  0  0  0
 13 20  1  0  0  0
 13 51  1  0  0  0
 14 15  2  0  0  0
 14 19  1  0  0  0
 15 16  1  0  0  0
 15 52  1  0  0  0
 16 17  2  0  0  0
 16 53  1  0  0  0
 17 18  1  0  0  0
 17 54  1  0  0  0
 18 19  2  0  0  0
 19 55  1  0  0  0
 20 21  1  0  0  0
 20 28  1  0  0  0
 21 22  2  0  0  0
 21 23  1  0  0  0
 23 24  2  0  0  0
 23 27  1  0  0  0
 24 25  1  0  0  0
 24 56  1  0  0  0
 25 26  2  0  0  0
 25 57  1  0  0  0
 26 27  1  0  0  0
 26 58  1  0  0  0
 28 29  1  0  0  0
 28 41  1  0  0  0
 28 59  1  0  0  0
 29 30  1  0  0  0
 29 60  1  0  0  0
 29 61  1  0  0  0
 30 31  1  0  0  0
 30 62  1  0  0  0
 30 63  1  0  0  0
 31 32  1  0  0  0
 31 64  1  0  0  0
 31 65  1  0  0  0
 32 33  1  0  0  0
 32 41  1  0  0  0
 32 66  1  0  0  0
 33 34  2  0  0  0
 33 40  1  0  0  0
 34 35  1  0  0  0
 34 67  1  0  0  0
 35 36  2  0  0  0
 35 68  1  0  0  0
 36 37  1  0  0  0
 36 38  1  0  0  0
 38 39  1  0  0  0
 38 40  2  0  0  0
 40 69  1  0  0  0
 41 70  1  0  0  0
 41 71  1  0  0  0
M  END
> <s_m_entry_id>
3631

> <s_m_entry_name>
Compounds-withfrags-for-validation-docking.1888

> <s_m_Source_Path>
/home/rodolpho/data/melina/maestro/glide-dock_XP_5RGK_M-PRO_VALIDATION

> <s_m_Source_File>
glide-dock_XP_5RGK_M-PRO_VALIDATION_pv.maegz

> <i_m_Source_File_Index>
3631

> <CID>
ALP-POS-b0bc6a46-26

> <Potency>
99.5

> <pIC50>
4.00218

> <Source>
Postera

> <smiles>
O=C(NCCc1cccc(F)c1)C(c1cccnc1)N(C(=O)c1ccco1)C1CCCC(c2ccc(F)c(F)c2)C1

> <Outcome>
Inactive

> <StandardizerResult>
Clear Stereo (ID: ClearStereo)
Wedge Clean (ID: WedgeClean)
Mesomerize (ID: Mesomerize)
Tautomerize (ID: Tautomerize)
Aromatize (ID: Aromatize)
Add Explicit Hydrogens (ID: AddExplicitH)
Neutralize (ID: Neutralize)
Clean 2D (ID: Clean2D)

> <chiral flag>
0

> <version>
0

> <i_lp_mmshare_version>
41011

> <i_f3d_flags>
0

> <s_epik_input>
RmMoW2NIXTEpW2NIXVtjSF1bY0hdYzFbQ0gyXVtDSDJdW05IXUMoPU8pW0NAQEhdKGMyW2NIXVtjSF1bY0hdbltjSF0yKU4oQyg9TyljM1tjSF1bY0hdW2NIXW8zKVtDQEhdNFtDSDJdW0NIMl1bQ0gyXVtDQEhdKFtDSDJdNCljNVtjSF1bY0hdYyhGKWMoRilbY0hdNQ==

> <s_epik_cmdline>
J2VwaWtfcHl0aG9uJywgJy1waHQnLCAnMC41JywgJy1waCcsICc3LjQnLCAnLXRuJywgJzgnLCAnLW1hJywgJzIwMCcsICctaW1hZScsICc8aW5maWxlLm1hZT4nLCAnLW9tYWUnLCAnPG91dGZpbGUubWFlPic=

> <r_lp_tautomer_probability>
1.0

> <r_epik_Ionization_Penalty>
8.0E-4

> <r_epik_Ionization_Penalty_Charging>
0.0

> <r_epik_Ionization_Penalty_Neutral>
8.0E-4

> <r_epik_State_Penalty>
0.0

> <r_epik_Charging_Adjusted_Penalty>
0.0

> <i_epik_Tot_Q>
0

> <i_epik_Tot_abs_Q>
0

> <s_lp_Force_Field>
OPLS3

> <r_lp_Energy>
67.1394

> <b_lp_Chiralities_Consistent>
1

> <s_lp_Variant>
ligprep_COVID_compounds-withfrags-smallmolecules-forvalidation.maegz:29-3

> <i_glide_original_lignum>
155

> <s_i_glide_gridfile>
glide-grid_5RGK_M-PRO_COVID

> <i_i_glide_lignum>
155

> <r_i_docking_score>
-2.38473385365368

> <r_i_glide_ligand_efficiency>
-0.0581642403330165

> <r_i_glide_ligand_efficiency_sa>
-0.200562936041804

> <r_i_glide_ligand_efficiency_ln>
-0.50592922308305

> <r_glide_XP_GScore>
-2.38473385365368

> <r_i_glide_gscore>
-2.38473385365368

> <r_i_glide_evdw>
-38.6340103149414

> <r_i_glide_ecoul>
-8.25004005432129

> <r_i_glide_energy>
-46.8840503692627

> <r_i_glide_einternal>
0.0

> <r_i_glide_emodel>
-68.0426875861198

> <r_glide_XP_HBond>
-0.771181886906457

> <i_i_glide_confnum>
11

> <i_i_glide_posenum>
69

> <r_i_glide_eff_state_penalty>
0.0

> <i_glide_XP_PoseRank>
1

> <MW>
561.22

> <cLogP>
6.36

> <TPSA>
75.44

> <Rotatable Bonds>
9

> <Fraction sp3>
0.28

> <HBA>
4

> <HBD>
1

> <s_epik_Chemistry_Notes>


> <Structure ID>


> <Submission Fragments>


$$$$
ligprep_COVID_compounds-withfrags-smallmolecules-forvalidation.maegz:6
                    3D
 Structure written by MMmdl.
 56 59  0  0  1  0            999 V2000
    2.4135    4.0326   21.5464 C   0  0  0  0  0  0
    2.1629    2.6091   20.9916 C   0  0  1  0  0  0
    3.4501    1.7751   20.9987 C   0  0  0  0  0  0
    4.1613    1.4929   19.8075 C   0  0  0  0  0  0
    5.3252    0.7070   19.8355 C   0  0  0  0  0  0
    5.7850    0.1823   21.0535 C   0  0  0  0  0  0
    5.0760    0.4280   22.2455 C   0  0  0  0  0  0
    5.5316   -0.1637   23.3882 O   0  0  0  0  0  0
    3.8998    1.2263   22.2297 C   0  0  0  0  0  0
    3.0646    1.4364   23.4596 C   0  0  0  0  0  0
    3.5750    1.5762   24.5707 O   0  0  0  0  0  0
    1.5846    1.5202   23.2460 C   0  0  0  0  0  0
    1.1274    1.7847   21.8084 C   0  0  1  0  0  0
   -0.3823    2.1183   21.6670 C   0  0  1  0  0  0
   -1.2297    1.1758   22.5834 C   0  0  2  0  0  0
   -2.7749    1.1995   22.4012 C   0  0  2  0  0  0
   -3.1096    1.0591   20.9601 N   0  0  0  0  0  0
   -4.1907    0.1092   20.7163 C   0  0  0  0  0  0
   -3.4031    2.3021   20.2459 C   0  0  0  0  0  0
   -3.5396    2.2433   23.2864 C   0  0  0  0  0  0
   -4.7435    2.2512   22.9314 O   0  5  0  0  0  0
   -2.8758    2.9254   24.3266 C   0  0  0  0  0  0
   -3.6625    3.9271   25.0917 C   0  0  0  0  0  0
   -3.0062    4.5348   26.0806 N   0  0  0  0  0  0
   -4.8367    4.2438   24.9109 O   0  0  0  0  0  0
   -1.4324    2.6317   24.6314 C   0  0  0  0  0  0
   -0.7218    3.3416   25.3509 O   0  0  0  0  0  0
   -0.8384    1.3198   24.0736 C   0  0  2  0  0  0
    0.6907    1.2911   24.2382 C   0  0  0  0  0  0
    1.0128    0.8513   25.4665 O   0  0  0  0  0  0
   -1.4081    0.2513   24.8199 O   0  0  0  0  0  0
   -0.6370    3.4898   21.8932 O   0  0  0  0  0  0
    1.6552    2.8041   19.6899 O   0  0  0  0  0  0
    2.7597    4.0303   22.5788 H   0  0  0  0  0  0
    1.5300    4.6654   21.5081 H   0  0  0  0  0  0
    3.1749    4.5506   20.9706 H   0  0  0  0  0  0
    3.8368    1.8938   18.8584 H   0  0  0  0  0  0
    5.8648    0.5083   18.9216 H   0  0  0  0  0  0
    6.6782   -0.4259   21.0631 H   0  0  0  0  0  0
    6.2699   -0.7355   23.2463 H   0  0  0  0  0  0
    1.1748    0.7863   21.3707 H   0  0  0  0  0  0
   -0.6502    1.9267   20.6282 H   0  0  0  0  0  0
   -0.9360    0.1667   22.2871 H   0  0  0  0  0  0
   -3.0718    0.2407   22.8284 H   0  0  0  0  0  0
   -3.9575   -0.8635   21.1503 H   0  0  0  0  0  0
   -4.3332   -0.0389   19.6455 H   0  0  0  0  0  0
   -5.1362    0.4522   21.1366 H   0  0  0  0  0  0
   -2.6542    3.0676   20.4323 H   0  0  0  0  0  0
   -4.3733    2.7174   20.5159 H   0  0  0  0  0  0
   -3.4223    2.1178   19.1719 H   0  0  0  0  0  0
   -2.0252    4.3066   26.2049 H   0  0  0  0  0  0
   -3.4704    5.2284   26.6445 H   0  0  0  0  0  0
    0.1943    0.5683   25.8542 H   0  0  0  0  0  0
   -2.3456    0.3876   24.8381 H   0  0  0  0  0  0
   -0.2030    3.9836   21.2131 H   0  0  0  0  0  0
    2.2980    3.3144   19.2135 H   0  0  0  0  0  0
  1  2  1  0  0  0
  1 34  1  0  0  0
  1 35  1  0  0  0
  1 36  1  0  0  0
  2  3  1  0  0  0
  2 33  1  0  0  0
  2 13  1  0  0  0
  3  4  2  0  0  0
  3  9  1  0  0  0
  4  5  1  0  0  0
  4 37  1  0  0  0
  5  6  2  0  0  0
  5 38  1  0  0  0
  6  7  1  0  0  0
  6 39  1  0  0  0
  7  8  1  0  0  0
  7  9  2  0  0  0
  8 40  1  0  0  0
  9 10  1  0  0  0
 10 11  2  0  0  0
 10 12  1  0  0  0
 12 13  1  0  0  0
 12 29  2  0  0  0
 13 14  1  0  0  0
 13 41  1  0  0  0
 14 15  1  0  0  0
 14 32  1  0  0  0
 14 42  1  0  0  0
 15 16  1  0  0  0
 15 28  1  0  0  0
 15 43  1  0  0  0
 16 17  1  0  0  0
 16 20  1  0  0  0
 16 44  1  0  0  0
 17 18  1  0  0  0
 17 19  1  0  0  0
 18 45  1  0  0  0
 18 46  1  0  0  0
 18 47  1  0  0  0
 19 48  1  0  0  0
 19 49  1  0  0  0
 19 50  1  0  0  0
 20 21  1  0  0  0
 20 22  2  0  0  0
 22 23  1  0  0  0
 22 26  1  0  0  0
 23 24  1  0  0  0
 23 25  2  0  0  0
 24 51  1  0  0  0
 24 52  1  0  0  0
 26 27  2  0  0  0
 26 28  1  0  0  0
 28 29  1  0  0  0
 28 31  1  0  0  0
 29 30  1  0  0  0
 30 53  1  0  0  0
 31 54  1  0  0  0
 32 55  1  0  0  0
 33 56  1  0  0  0
M  CHG  1  21  -1
M  END
> <s_m_entry_id>
3634

> <s_m_entry_name>
Compounds-withfrags-for-validation-docking.1911

> <s_m_Source_Path>
/home/rodolpho/data/melina/maestro/glide-dock_XP_5RGK_M-PRO_VALIDATION

> <s_m_Source_File>
glide-dock_XP_5RGK_M-PRO_VALIDATION_pv.maegz

> <i_m_Source_File_Index>
3634

> <CID>
Oxitetracyclin

> <Potency>
15.15

> <pIC50>
4.81959

> <Source>
https://doi.org/10.1101/2020.03.23.004580

> <smiles>
C(C1(C2=C(C(=C(C(O[H])=C2C(O[H])=C2C1(C(C1(C(N(C([H])([H])[H])C([H])([H])[H])([H])C(=O)C(=C(N([H])[H])O[H])C(=O)C1(C2=O)O[H])[H])(O[H])[H])[H])[H])[H])[H])O[H])([H])([H])[H]

> <Outcome>
Inactive

> <StandardizerResult>
Clear Stereo (ID: ClearStereo)
Wedge Clean (ID: WedgeClean)
Mesomerize (ID: Mesomerize)
Tautomerize (ID: Tautomerize)
Aromatize (ID: Aromatize)
Add Explicit Hydrogens (ID: AddExplicitH)
Neutralize (ID: Neutralize)
Clean 2D (ID: Clean2D)

> <chiral flag>
0

> <version>
0

> <i_lp_mmshare_version>
41011

> <i_f3d_flags>
0

> <s_epik_input>
W09IXWMxW2NIXVtjSF1bY0hdYyhbQ0BAXTIoW0NIM10pW09IXSljMUMoPU8pQyg9QzNbT0hdKVtDQEhdMltDQEhdKFtPSF0pW0NAQEhdKFtDQEBdMzRbT0hdKVtDQEhdKE4oW0NIM10pW0NIM10pQyg9TylbQ0BIXShDND1PKUMoPU8pW05IMl0=

> <s_epik_cmdline>
J2VwaWtfcHl0aG9uJywgJy1waHQnLCAnMC41JywgJy1waCcsICc3LjQnLCAnLXRuJywgJzgnLCAnLW1hJywgJzIwMCcsICctaW1hZScsICc8aW5maWxlLm1hZT4nLCAnLW9tYWUnLCAnPG91dGZpbGUubWFlPic=

> <r_epik_Ionization_Penalty>
0.3646

> <r_epik_Ionization_Penalty_Charging>
0.0013

> <r_epik_Ionization_Penalty_Neutral>
0.3633

> <r_epik_State_Penalty>
0.3215

> <r_epik_Charging_Adjusted_Penalty>
0.322822

> <i_epik_Tot_Q>
-1

> <i_epik_Tot_abs_Q>
1

> <s_lp_Force_Field>
OPLS3

> <r_lp_Energy>
63.5133

> <b_lp_Chiralities_Consistent>
1

> <s_lp_Variant>
ligprep_COVID_compounds-withfrags-smallmolecules-forvalidation.maegz:6-23

> <i_glide_original_lignum>
75

> <s_i_glide_gridfile>
glide-grid_5RGK_M-PRO_COVID

> <i_i_glide_lignum>
75

> <r_i_docking_score>
-2.3796181442485

> <r_i_glide_ligand_efficiency>
-0.072109640734803

> <r_i_glide_ligand_efficiency_sa>
-0.231294147910972

> <r_i_glide_ligand_efficiency_ln>
-0.529214754277521

> <r_glide_XP_GScore>
-2.7011151442485

> <r_i_glide_gscore>
-2.7011151442485

> <r_i_glide_evdw>
-17.3900775909424

> <r_i_glide_ecoul>
-5.79334592819214

> <r_i_glide_energy>
-23.1834235191345

> <r_i_glide_einternal>
2.78902173042297

> <r_i_glide_emodel>
-22.4016246730561

> <r_glide_XP_HBond>
-0.96

> <i_i_glide_confnum>
1

> <i_i_glide_posenum>
15

> <r_i_glide_eff_state_penalty>
0.321497

> <i_glide_XP_PoseRank>
1

> <r_lp_tautomer_probability>


> <s_epik_Chemistry_Notes>


> <MW>


> <cLogP>


> <TPSA>


> <Rotatable Bonds>


> <Fraction sp3>


> <HBA>


> <HBD>


> <Structure ID>


> <Submission Fragments>


$$$$
ligprep_COVID_compounds-withfrags-smallmolecules-forvalidation.maegz:42
                    3D
 Structure written by MMmdl.
 67 70  0  0  1  0            999 V2000
    0.3250   -0.1661   25.4427 C   0  0  0  0  0  0
    1.5101    0.6383   26.0035 C   0  0  0  0  0  0
    1.3050    1.1006   27.4564 C   0  0  0  0  0  0
    2.0183    1.6989   25.0116 C   0  0  0  0  0  0
    3.0756    1.2767   24.1716 C   0  0  0  0  0  0
    3.6628    2.1333   23.2195 C   0  0  0  0  0  0
    4.7052    1.6812   22.3467 N   0  0  0  0  0  0
    4.2977    1.4362   21.0633 C   0  0  0  0  0  0
    3.1427    1.6529   20.6778 O   0  0  0  0  0  0
    5.2046    0.8481   20.0610 C   0  0  0  0  0  0
    5.2067    1.0313   18.7055 C   0  0  0  0  0  0
    6.1403    0.1034   18.1747 C   0  0  0  0  0  0
    6.6564   -0.5634   19.2480 C   0  0  0  0  0  0
    6.0795   -0.1403   20.4019 O   0  0  0  0  0  0
    6.1422    1.5760   22.8128 C   0  0  2  0  0  0
    6.4368    0.2856   23.6315 C   0  0  0  0  0  0
    5.5638   -0.5643   23.7682 O   0  0  0  0  0  0
    7.6633    0.1528   24.1709 N   0  0  0  0  0  0
    8.0887   -0.5814   25.3723 C   0  0  0  0  0  0
    7.3373   -1.8637   25.8035 C   0  0  0  0  0  0
    7.8703   -3.1500   25.1944 C   0  0  0  0  0  0
    8.7651   -3.9535   25.9369 C   0  0  0  0  0  0
    9.2158   -5.1820   25.4181 C   0  0  0  0  0  0
    8.7759   -5.6105   24.1529 C   0  0  0  0  0  0
    7.9012   -4.8059   23.3974 C   0  0  0  0  0  0
    7.4965   -5.2219   22.1735 F   0  0  0  0  0  0
    7.4460   -3.5769   23.9170 C   0  0  0  0  0  0
    6.6836    2.7478   23.6529 C   0  0  0  0  0  0
    8.0530    3.1095   23.5603 C   0  0  0  0  0  0
    8.6014    4.1786   24.2885 C   0  0  0  0  0  0
    7.7516    4.8992   25.1357 C   0  0  0  0  0  0
    6.4572    4.5821   25.2934 N   0  0  0  0  0  0
    5.9613    3.5534   24.5727 C   0  0  0  0  0  0
    3.1517    3.4399   23.0764 C   0  0  0  0  0  0
    2.0958    3.8772   23.8923 C   0  0  0  0  0  0
    1.5057    3.0283   24.8598 C   0  0  0  0  0  0
    0.3517    3.6088   25.6824 C   0  0  0  0  0  0
   -0.6671    2.7606   25.7874 F   0  0  0  0  0  0
    0.7849    3.9458   26.8963 F   0  0  0  0  0  0
   -0.1369    4.7141   25.1171 F   0  0  0  0  0  0
    0.5914   -0.6362   24.4959 H   0  0  0  0  0  0
   -0.5553    0.4477   25.2638 H   0  0  0  0  0  0
    0.0327   -0.9621   26.1283 H   0  0  0  0  0  0
    2.3192   -0.0883   26.0937 H   0  0  0  0  0  0
    2.1502    1.6925   27.8101 H   0  0  0  0  0  0
    1.2160    0.2355   28.1147 H   0  0  0  0  0  0
    0.3938    1.6750   27.6007 H   0  0  0  0  0  0
    3.4167    0.2587   24.2474 H   0  0  0  0  0  0
    4.5764    1.7243   18.1649 H   0  0  0  0  0  0
    6.3745   -0.0698   17.1396 H   0  0  0  0  0  0
    7.3733   -1.3631   19.3663 H   0  0  0  0  0  0
    6.7892    1.5339   21.9390 H   0  0  0  0  0  0
    8.3143    0.8666   23.8802 H   0  0  0  0  0  0
    9.1592   -0.7779   25.3090 H   0  0  0  0  0  0
    7.9763    0.1409   26.1821 H   0  0  0  0  0  0
    7.4610   -1.9572   26.8826 H   0  0  0  0  0  0
    6.2592   -1.8032   25.6810 H   0  0  0  0  0  0
    9.0976   -3.6430   26.9170 H   0  0  0  0  0  0
    9.8911   -5.8034   25.9908 H   0  0  0  0  0  0
    9.1242   -6.5549   23.7553 H   0  0  0  0  0  0
    6.7586   -2.9734   23.3406 H   0  0  0  0  0  0
    8.7301    2.5258   22.9701 H   0  0  0  0  0  0
    9.6460    4.4349   24.2005 H   0  0  0  0  0  0
    8.1245    5.7278   25.7188 H   0  0  0  0  0  0
    4.9478    3.3458   24.8534 H   0  0  0  0  0  0
    3.5743    4.1084   22.3378 H   0  0  0  0  0  0
    1.7410    4.8879   23.7553 H   0  0  0  0  0  0
  1  2  1  0  0  0
  1 41  1  0  0  0
  1 42  1  0  0  0
  1 43  1  0  0  0
  2  3  1  0  0  0
  2  4  1  0  0  0
  2 44  1  0  0  0
  3 45  1  0  0  0
  3 46  1  0  0  0
  3 47  1  0  0  0
  4  5  2  0  0  0
  4 36  1  0  0  0
  5  6  1  0  0  0
  5 48  1  0  0  0
  6  7  1  0  0  0
  6 34  2  0  0  0
  7  8  1  0  0  0
  7 15  1  0  0  0
  8  9  2  0  0  0
  8 10  1  0  0  0
 10 11  2  0  0  0
 10 14  1  0  0  0
 11 12  1  0  0  0
 11 49  1  0  0  0
 12 13  2  0  0  0
 12 50  1  0  0  0
 13 14  1  0  0  0
 13 51  1  0  0  0
 15 16  1  0  0  0
 15 28  1  0  0  0
 15 52  1  0  0  0
 16 17  2  0  0  0
 16 18  1  0  0  0
 18 19  1  0  0  0
 18 53  1  0  0  0
 19 20  1  0  0  0
 19 54  1  0  0  0
 19 55  1  0  0  0
 20 21  1  0  0  0
 20 56  1  0  0  0
 20 57  1  0  0  0
 21 22  2  0  0  0
 21 27  1  0  0  0
 22 23  1  0  0  0
 22 58  1  0  0  0
 23 24  2  0  0  0
 23 59  1  0  0  0
 24 25  1  0  0  0
 24 60  1  0  0  0
 25 26  1  0  0  0
 25 27  2  0  0  0
 27 61  1  0  0  0
 28 29  2  0  0  0
 28 33  1  0  0  0
 29 30  1  0  0  0
 29 62  1  0  0  0
 30 31  2  0  0  0
 30 63  1  0  0  0
 31 32  1  0  0  0
 31 64  1  0  0  0
 32 33  2  0  0  0
 33 65  1  0  0  0
 34 35  1  0  0  0
 34 66  1  0  0  0
 35 36  2  0  0  0
 35 67  1  0  0  0
 36 37  1  0  0  0
 37 38  1  0  0  0
 37 39  1  0  0  0
 37 40  1  0  0  0
M  END
> <s_m_entry_id>
3643

> <s_m_entry_name>
Compounds-withfrags-for-validation-docking.1875

> <s_m_Source_Path>
/home/rodolpho/data/melina/maestro/glide-dock_XP_5RGK_M-PRO_VALIDATION

> <s_m_Source_File>
glide-dock_XP_5RGK_M-PRO_VALIDATION_pv.maegz

> <i_m_Source_File_Index>
3643

> <CID>
ALP-POS-b0bc6a46-11

> <Potency>
99.5

> <pIC50>
4.00218

> <Source>
Postera

> <smiles>
CC(C)c1cc(N(C(=O)c2ccco2)C(C(=O)NCCc2cccc(F)c2)c2cccnc2)ccc1C(F)(F)F

> <Outcome>
Inactive

> <StandardizerResult>
Clear Stereo (ID: ClearStereo)
Wedge Clean (ID: WedgeClean)
Mesomerize (ID: Mesomerize)
Tautomerize (ID: Tautomerize)
Aromatize (ID: Aromatize)
Add Explicit Hydrogens (ID: AddExplicitH)
Neutralize (ID: Neutralize)
Clean 2D (ID: Clean2D)

> <chiral flag>
0

> <version>
0

> <i_lp_mmshare_version>
41011

> <i_f3d_flags>
0

> <s_epik_input>
bzFbY0hdW2NIXVtjSF1jMUMoPU8pTihjKFtjSF1jMltDSF0oW0NIM10pW0NIM10pW2NIXVtjSF1jMkMoRikoRilGKVtDQEBIXShjM1tjSF1bY0hdW2NIXW5bY0hdMylDKD1PKVtOSF1bQ0gyXVtDSDJdYzRbY0hdW2NIXVtjSF1jKEYpW2NIXTQ=

> <s_epik_cmdline>
J2VwaWtfcHl0aG9uJywgJy1waHQnLCAnMC41JywgJy1waCcsICc3LjQnLCAnLXRuJywgJzgnLCAnLW1hJywgJzIwMCcsICctaW1hZScsICc8aW5maWxlLm1hZT4nLCAnLW9tYWUnLCAnPG91dGZpbGUubWFlPic=

> <r_lp_tautomer_probability>
1.0

> <r_epik_Ionization_Penalty>
6.0E-4

> <r_epik_Ionization_Penalty_Charging>
0.0

> <r_epik_Ionization_Penalty_Neutral>
6.0E-4

> <r_epik_State_Penalty>
0.0

> <r_epik_Charging_Adjusted_Penalty>
0.0

> <i_epik_Tot_Q>
0

> <i_epik_Tot_abs_Q>
0

> <s_lp_Force_Field>
OPLS3

> <r_lp_Energy>
71.1782

> <b_lp_Chiralities_Consistent>
1

> <s_lp_Variant>
ligprep_COVID_compounds-withfrags-smallmolecules-forvalidation.maegz:42-2

> <i_glide_original_lignum>
190

> <s_i_glide_gridfile>
glide-grid_5RGK_M-PRO_COVID

> <i_i_glide_lignum>
190

> <r_i_docking_score>
-2.35240473297649

> <r_i_glide_ligand_efficiency>
-0.0588101183244123

> <r_i_glide_ligand_efficiency_sa>
-0.201127775264599

> <r_i_glide_ligand_efficiency_ln>
-0.501698701362974

> <r_glide_XP_GScore>
-2.35240473297649

> <r_i_glide_gscore>
-2.35240473297649

> <r_i_glide_evdw>
-39.1119117736816

> <r_i_glide_ecoul>
-2.47886419296265

> <r_i_glide_energy>
-41.5907759666443

> <r_i_glide_einternal>
4.56582832336426

> <r_i_glide_emodel>
-58.7552430335693

> <r_glide_XP_HBond>
-0.90529167310074

> <i_i_glide_confnum>
2

> <i_i_glide_posenum>
3

> <r_i_glide_eff_state_penalty>
0.0

> <i_glide_XP_PoseRank>
1

> <MW>
553.2

> <cLogP>
6.7

> <TPSA>
75.44

> <Rotatable Bonds>
9

> <Fraction sp3>
0.23

> <HBA>
4

> <HBD>
1

> <s_epik_Chemistry_Notes>


> <Structure ID>


> <Submission Fragments>


$$$$
ligprep_COVID_compounds-withfrags-smallmolecules-forvalidation.maegz:102
                    3D
 Structure written by MMmdl.
 47 50  0  0  1  0            999 V2000
    8.8708   -4.0654   24.1652 C   0  0  0  0  0  0
    7.8401   -3.2738   24.8416 N   0  0  0  0  0  0
    6.7849   -3.8256   25.4922 C   0  0  0  0  0  0
    5.9471   -3.1486   26.0915 O   0  0  0  0  0  0
    6.5986   -5.3497   25.4971 C   0  0  0  0  0  0
    5.5758   -5.7636   24.5510 N   0  0  0  0  0  0
    5.8237   -5.6928   23.2108 N   0  0  0  0  0  0
    4.7963   -6.1636   22.5709 N   0  0  0  0  0  0
    3.8571   -6.5630   23.5070 C   0  0  0  0  0  0
    2.5793   -7.1494   23.3685 C   0  0  0  0  0  0
    1.8270   -7.4962   24.5107 C   0  0  0  0  0  0
    2.3373   -7.2529   25.8035 C   0  0  0  0  0  0
    3.6031   -6.6564   25.9613 C   0  0  0  0  0  0
    4.3400   -6.3222   24.8115 C   0  0  0  0  0  0
    8.0083   -1.8676   24.8216 C   0  0  0  0  0  0
    7.4379   -1.0997   23.7850 C   0  0  0  0  0  0
    7.6397    0.2945   23.7510 C   0  0  0  0  0  0
    8.4169    0.9238   24.7442 C   0  0  0  0  0  0
    8.5676    2.2887   24.7331 O   0  0  0  0  0  0
    9.6781    2.8806   24.1705 C   0  0  0  0  0  0
    9.6446    4.2663   23.9207 C   0  0  0  0  0  0
   10.7813    4.8866   23.3708 C   0  0  0  0  0  0
   11.9108    4.0974   23.0761 C   0  0  0  0  0  0
   13.1530    4.6928   22.4423 C   0  0  0  0  0  0
   14.0764    4.9273   23.3706 F   0  0  0  0  0  0
   13.6265    3.8363   21.5463 F   0  0  0  0  0  0
   12.9155    5.8360   21.8154 F   0  0  0  0  0  0
   11.8520    2.7199   23.3708 C   0  0  0  0  0  0
   10.7698    2.1172   23.9068 N   0  0  0  0  0  0
    8.9701    0.1536   25.7874 C   0  0  0  0  0  0
    8.7674   -1.2384   25.8286 C   0  0  0  0  0  0
    9.5979   -3.4259   23.6627 H   0  0  0  0  0  0
    8.4409   -4.7170   23.4040 H   0  0  0  0  0  0
    9.4252   -4.6773   24.8791 H   0  0  0  0  0  0
    7.5158   -5.9023   25.2995 H   0  0  0  0  0  0
    6.2890   -5.6532   26.4977 H   0  0  0  0  0  0
    2.1898   -7.3495   22.3812 H   0  0  0  0  0  0
    0.8568   -7.9567   24.3949 H   0  0  0  0  0  0
    1.7601   -7.5293   26.6739 H   0  0  0  0  0  0
    4.0040   -6.4713   26.9472 H   0  0  0  0  0  0
    6.8513   -1.5768   23.0125 H   0  0  0  0  0  0
    7.2004    0.8823   22.9582 H   0  0  0  0  0  0
    8.7567    4.8404   24.1426 H   0  0  0  0  0  0
   10.7726    5.9459   23.1619 H   0  0  0  0  0  0
   12.6969    2.0778   23.1685 H   0  0  0  0  0  0
    9.5379    0.6357   26.5653 H   0  0  0  0  0  0
    9.1748   -1.8224   26.6395 H   0  0  0  0  0  0
  1  2  1  0  0  0
  1 32  1  0  0  0
  1 33  1  0  0  0
  1 34  1  0  0  0
  2  3  1  0  0  0
  2 15  1  0  0  0
  3  4  2  0  0  0
  3  5  1  0  0  0
  5  6  1  0  0  0
  5 35  1  0  0  0
  5 36  1  0  0  0
  6  7  1  0  0  0
  6 14  1  0  0  0
  7  8  2  0  0  0
  8  9  1  0  0  0
  9 10  2  0  0  0
  9 14  1  0  0  0
 10 11  1  0  0  0
 10 37  1  0  0  0
 11 12  2  0  0  0
 11 38  1  0  0  0
 12 13  1  0  0  0
 12 39  1  0  0  0
 13 14  2  0  0  0
 13 40  1  0  0  0
 15 16  2  0  0  0
 15 31  1  0  0  0
 16 17  1  0  0  0
 16 41  1  0  0  0
 17 18  2  0  0  0
 17 42  1  0  0  0
 18 19  1  0  0  0
 18 30  1  0  0  0
 19 20  1  0  0  0
 20 21  2  0  0  0
 20 29  1  0  0  0
 21 22  1  0  0  0
 21 43  1  0  0  0
 22 23  2  0  0  0
 22 44  1  0  0  0
 23 24  1  0  0  0
 23 28  1  0  0  0
 24 25  1  0  0  0
 24 26  1  0  0  0
 24 27  1  0  0  0
 28 29  2  0  0  0
 28 45  1  0  0  0
 30 31  2  0  0  0
 30 46  1  0  0  0
 31 47  1  0  0  0
M  END
> <s_m_entry_id>
3649

> <s_m_entry_name>
Compounds-withfrags-for-validation-docking.1815

> <s_m_Source_Path>
/home/rodolpho/data/melina/maestro/glide-dock_XP_5RGK_M-PRO_VALIDATION

> <s_m_Source_File>
glide-dock_XP_5RGK_M-PRO_VALIDATION_pv.maegz

> <i_m_Source_File_Index>
3649

> <CID>
AAR-POS-8a4e0f60-7

> <Potency>
37.8324

> <pIC50>
4.42214

> <Source>
Postera

> <smiles>
CN(C(=O)Cn1nnc2ccccc21)c1ccc(Oc2ccc(C(F)(F)F)cn2)cc1

> <Outcome>
Inactive

> <StandardizerResult>
Clear Stereo (ID: ClearStereo)
Wedge Clean (ID: WedgeClean)
Mesomerize (ID: Mesomerize)
Tautomerize (ID: Tautomerize)
Aromatize (ID: Aromatize)
Add Explicit Hydrogens (ID: AddExplicitH)
Neutralize (ID: Neutralize)
Clean 2D (ID: Clean2D)

> <chiral flag>
0

> <version>
0

> <i_lp_mmshare_version>
41011

> <i_f3d_flags>
0

> <s_epik_input>
W2NIXTFbY0hdW2NIXVtjSF1jKGMxMiluKG5uMilbQ0gyXUMoPU8pTihbQ0gzXSljM1tjSF1bY0hdYyhbY0hdW2NIXTMpT2M0W2NIXVtjSF1jKEMoRikoRilGKVtjSF1uNA==

> <s_epik_cmdline>
J2VwaWtfcHl0aG9uJywgJy1waHQnLCAnMC41JywgJy1waCcsICc3LjQnLCAnLXRuJywgJzgnLCAnLW1hJywgJzIwMCcsICctaW1hZScsICc8aW5maWxlLm1hZT4nLCAnLW9tYWUnLCAnPG91dGZpbGUubWFlPic=

> <r_lp_tautomer_probability>
1.0

> <r_epik_Ionization_Penalty>
0.0

> <r_epik_Ionization_Penalty_Charging>
0.0

> <r_epik_Ionization_Penalty_Neutral>
0.0

> <r_epik_State_Penalty>
0.0

> <r_epik_Charging_Adjusted_Penalty>
0.0

> <i_epik_Tot_Q>
0

> <i_epik_Tot_abs_Q>
0

> <s_lp_Force_Field>
OPLS3

> <r_lp_Energy>
46.0208

> <b_lp_Chiralities_Consistent>
1

> <s_lp_Variant>
ligprep_COVID_compounds-withfrags-smallmolecules-forvalidation.maegz:102-1

> <i_glide_original_lignum>
291

> <s_i_glide_gridfile>
glide-grid_5RGK_M-PRO_COVID

> <i_i_glide_lignum>
291

> <r_i_docking_score>
-2.33614705102726

> <r_i_glide_ligand_efficiency>
-0.0753595822912021

> <r_i_glide_ligand_efficiency_sa>
-0.2367331335109

> <r_i_glide_ligand_efficiency_ln>
-0.526872754315611

> <r_glide_XP_GScore>
-2.33614705102726

> <r_i_glide_gscore>
-2.33614705102726

> <r_i_glide_evdw>
-40.4955291748047

> <r_i_glide_ecoul>
-5.00033855438232

> <r_i_glide_energy>
-45.495867729187

> <r_i_glide_einternal>
11.0700645446777

> <r_i_glide_emodel>
-54.8472108800343

> <r_glide_XP_HBond>
-0.313566396649796

> <i_i_glide_confnum>
1

> <i_i_glide_posenum>
1

> <r_i_glide_eff_state_penalty>
0.0

> <i_glide_XP_PoseRank>
1

> <MW>
427.386

> <cLogP>
4.3004

> <TPSA>
73.14

> <Rotatable Bonds>
5

> <Fraction sp3>
0.14

> <HBA>
6

> <HBD>
0

> <Submission Fragments>
x0072

> <s_epik_Chemistry_Notes>


> <Structure ID>


$$$$
ligprep_COVID_compounds-withfrags-smallmolecules-forvalidation.maegz:6
                    3D
 Structure written by MMmdl.
 56 59  0  0  1  0            999 V2000
    3.1716    0.9763   24.2842 C   0  0  0  0  0  0
    3.7262    2.0776   23.3563 C   0  0  1  0  0  0
    4.4650    1.3926   22.1952 C   0  0  0  0  0  0
    5.6055    0.6153   22.5024 C   0  0  0  0  0  0
    6.3327   -0.0309   21.4932 C   0  0  0  0  0  0
    5.9740    0.1488   20.1512 C   0  0  0  0  0  0
    4.8595    0.9375   19.8183 C   0  0  0  0  0  0
    4.5996    1.0989   18.4902 O   0  0  0  0  0  0
    4.0558    1.5258   20.8357 C   0  0  0  0  0  0
    2.7855    2.2495   20.5090 C   0  0  0  0  0  0
    2.4795    2.6226   19.3739 O   0  0  0  0  0  0
    1.9098    2.5168   21.6604 C   0  0  0  0  0  0
    2.6342    3.0904   22.8615 C   0  0  1  0  0  0
    1.6226    3.6985   23.8885 C   0  0  1  0  0  0
    0.3723    2.7900   24.1324 C   0  0  1  0  0  0
   -0.5929    3.1557   25.3344 C   0  0  2  0  0  0
   -0.2442    2.4686   26.6054 N   0  0  0  0  0  0
   -0.3653    1.0119   26.6272 C   0  0  0  0  0  0
    0.9475    2.9120   27.3096 C   0  0  0  0  0  0
   -2.1116    2.8673   25.0713 C   0  0  0  0  0  0
   -2.7699    3.4697   25.9589 O   0  5  0  0  0  0
   -2.5096    2.0264   24.0146 C   0  0  0  0  0  0
   -3.9064    1.5981   23.8133 C   0  0  0  0  0  0
   -4.7509    1.9936   24.7626 N   0  0  0  0  0  0
   -4.3291    0.9301   22.8713 O   0  0  0  0  0  0
   -1.4914    1.5887   23.0384 C   0  0  0  0  0  0
   -1.5084    0.5058   22.4478 O   0  0  0  0  0  0
   -0.3813    2.6285   22.7802 C   0  0  2  0  0  0
    0.5769    2.3015   21.6215 C   0  0  0  0  0  0
   -0.0616    1.7975   20.5505 O   0  0  0  0  0  0
   -1.0071    3.8520   22.4175 O   0  0  0  0  0  0
    2.3241    4.1188   25.0360 O   0  0  0  0  0  0
    4.6401    2.8260   24.1368 O   0  0  0  0  0  0
    2.4046    0.3911   23.7801 H   0  0  0  0  0  0
    2.7423    1.3836   25.1963 H   0  0  0  0  0  0
    3.9397    0.2708   24.5996 H   0  0  0  0  0  0
    5.9291    0.4993   23.5266 H   0  0  0  0  0  0
    7.1749   -0.6508   21.7505 H   0  0  0  0  0  0
    6.5579   -0.3216   19.3734 H   0  0  0  0  0  0
    3.9416    1.7665   18.3285 H   0  0  0  0  0  0
    3.1827    3.9473   22.4601 H   0  0  0  0  0  0
    1.2549    4.6334   23.4646 H   0  0  0  0  0  0
    0.7441    1.7970   24.3497 H   0  0  0  0  0  0
   -0.4914    4.2288   25.5055 H   0  0  0  0  0  0
   -0.3036    0.6481   27.6531 H   0  0  0  0  0  0
    0.4293    0.5287   26.0603 H   0  0  0  0  0  0
   -1.3221    0.6775   26.2284 H   0  0  0  0  0  0
    0.9169    2.5729   28.3454 H   0  0  0  0  0  0
    1.0072    4.0002   27.3243 H   0  0  0  0  0  0
    1.8529    2.5092   26.8623 H   0  0  0  0  0  0
   -4.3464    2.5790   25.4938 H   0  0  0  0  0  0
   -5.7296    1.7613   24.7271 H   0  0  0  0  0  0
   -0.9643    1.6592   20.8053 H   0  0  0  0  0  0
   -0.3403    4.4931   22.2283 H   0  0  0  0  0  0
    3.2224    3.8139   24.9537 H   0  0  0  0  0  0
    5.1297    3.3851   23.5406 H   0  0  0  0  0  0
  1  2  1  0  0  0
  1 34  1  0  0  0
  1 35  1  0  0  0
  1 36  1  0  0  0
  2  3  1  0  0  0
  2 33  1  0  0  0
  2 13  1  0  0  0
  3  4  2  0  0  0
  3  9  1  0  0  0
  4  5  1  0  0  0
  4 37  1  0  0  0
  5  6  2  0  0  0
  5 38  1  0  0  0
  6  7  1  0  0  0
  6 39  1  0  0  0
  7  8  1  0  0  0
  7  9  2  0  0  0
  8 40  1  0  0  0
  9 10  1  0  0  0
 10 11  2  0  0  0
 10 12  1  0  0  0
 12 13  1  0  0  0
 12 29  2  0  0  0
 13 14  1  0  0  0
 13 41  1  0  0  0
 14 15  1  0  0  0
 14 32  1  0  0  0
 14 42  1  0  0  0
 15 16  1  0  0  0
 15 28  1  0  0  0
 15 43  1  0  0  0
 16 17  1  0  0  0
 16 20  1  0  0  0
 16 44  1  0  0  0
 17 18  1  0  0  0
 17 19  1  0  0  0
 18 45  1  0  0  0
 18 46  1  0  0  0
 18 47  1  0  0  0
 19 48  1  0  0  0
 19 49  1  0  0  0
 19 50  1  0  0  0
 20 21  1  0  0  0
 20 22  2  0  0  0
 22 23  1  0  0  0
 22 26  1  0  0  0
 23 24  1  0  0  0
 23 25  2  0  0  0
 24 51  1  0  0  0
 24 52  1  0  0  0
 26 27  2  0  0  0
 26 28  1  0  0  0
 28 29  1  0  0  0
 28 31  1  0  0  0
 29 30  1  0  0  0
 30 53  1  0  0  0
 31 54  1  0  0  0
 32 55  1  0  0  0
 33 56  1  0  0  0
M  CHG  1  21  -1
M  END
> <s_m_entry_id>
3670

> <s_m_entry_name>
Compounds-withfrags-for-validation-docking.1911

> <s_m_Source_Path>
/home/rodolpho/data/melina/maestro/glide-dock_XP_5RGK_M-PRO_VALIDATION

> <s_m_Source_File>
glide-dock_XP_5RGK_M-PRO_VALIDATION_pv.maegz

> <i_m_Source_File_Index>
3670

> <CID>
Oxitetracyclin

> <Potency>
15.15

> <pIC50>
4.81959

> <Source>
https://doi.org/10.1101/2020.03.23.004580

> <smiles>
C(C1(C2=C(C(=C(C(O[H])=C2C(O[H])=C2C1(C(C1(C(N(C([H])([H])[H])C([H])([H])[H])([H])C(=O)C(=C(N([H])[H])O[H])C(=O)C1(C2=O)O[H])[H])(O[H])[H])[H])[H])[H])[H])O[H])([H])([H])[H]

> <Outcome>
Inactive

> <StandardizerResult>
Clear Stereo (ID: ClearStereo)
Wedge Clean (ID: WedgeClean)
Mesomerize (ID: Mesomerize)
Tautomerize (ID: Tautomerize)
Aromatize (ID: Aromatize)
Add Explicit Hydrogens (ID: AddExplicitH)
Neutralize (ID: Neutralize)
Clean 2D (ID: Clean2D)

> <chiral flag>
0

> <version>
0

> <i_lp_mmshare_version>
41011

> <i_f3d_flags>
0

> <s_epik_input>
W09IXWMxW2NIXVtjSF1bY0hdYyhbQ0BAXTIoW0NIM10pW09IXSljMUMoPU8pQyg9QzNbT0hdKVtDQEhdMltDQEhdKFtPSF0pW0NASF0oW0NAQF0zNFtPSF0pW0NASF0oTihbQ0gzXSlbQ0gzXSlDKD1PKVtDQEhdKEM0PU8pQyg9TylbTkgyXQ==

> <s_epik_cmdline>
J2VwaWtfcHl0aG9uJywgJy1waHQnLCAnMC41JywgJy1waCcsICc3LjQnLCAnLXRuJywgJzgnLCAnLW1hJywgJzIwMCcsICctaW1hZScsICc8aW5maWxlLm1hZT4nLCAnLW9tYWUnLCAnPG91dGZpbGUubWFlPic=

> <r_epik_Ionization_Penalty>
0.3646

> <r_epik_Ionization_Penalty_Charging>
0.0013

> <r_epik_Ionization_Penalty_Neutral>
0.3633

> <r_epik_State_Penalty>
0.3215

> <r_epik_Charging_Adjusted_Penalty>
0.322822

> <i_epik_Tot_Q>
-1

> <i_epik_Tot_abs_Q>
1

> <s_lp_Force_Field>
OPLS3

> <r_lp_Energy>
55.4362

> <b_lp_Chiralities_Consistent>
1

> <s_lp_Variant>
ligprep_COVID_compounds-withfrags-smallmolecules-forvalidation.maegz:6-20

> <i_glide_original_lignum>
72

> <s_i_glide_gridfile>
glide-grid_5RGK_M-PRO_COVID

> <i_i_glide_lignum>
72

> <r_i_docking_score>
-2.27706159659359

> <r_i_glide_ligand_efficiency>
-0.0690018665634421

> <r_i_glide_ligand_efficiency_sa>
-0.221325855578076

> <r_i_glide_ligand_efficiency_ln>
-0.506406709088454

> <r_glide_XP_GScore>
-2.59855859659359

> <r_i_glide_gscore>
-2.59855859659359

> <r_i_glide_evdw>
-20.6086406707764

> <r_i_glide_ecoul>
-6.44637823104858

> <r_i_glide_energy>
-27.055018901825

> <r_i_glide_einternal>
0.0

> <r_i_glide_emodel>
-29.4443495498122

> <r_glide_XP_HBond>
-0.96

> <i_i_glide_confnum>
1

> <i_i_glide_posenum>
22

> <r_i_glide_eff_state_penalty>
0.321497

> <i_glide_XP_PoseRank>
1

> <r_lp_tautomer_probability>


> <s_epik_Chemistry_Notes>


> <MW>


> <cLogP>


> <TPSA>


> <Rotatable Bonds>


> <Fraction sp3>


> <HBA>


> <HBD>


> <Structure ID>


> <Submission Fragments>


$$$$
ligprep_COVID_compounds-withfrags-smallmolecules-forvalidation.maegz:39
                    3D
 Structure written by MMmdl.
 70 75  0  0  1  0            999 V2000
    2.7580   -6.0877   26.4453 O   0  0  0  0  0  0
    3.9088   -6.2400   26.0334 C   0  0  0  0  0  0
    4.1812   -6.8214   24.8499 N   0  0  0  0  0  0
    3.3044   -7.1150   23.7073 C   0  0  0  0  0  0
    1.7759   -6.9971   23.9199 C   0  0  0  0  0  0
    0.9682   -7.1299   22.6371 C   0  0  0  0  0  0
    1.1751   -8.2140   21.7611 C   0  0  0  0  0  0
    0.4254   -8.3285   20.5752 C   0  0  0  0  0  0
   -0.5494   -7.3639   20.2612 C   0  0  0  0  0  0
   -0.7673   -6.2804   21.1321 C   0  0  0  0  0  0
   -1.7035   -5.3494   20.8318 F   0  0  0  0  0  0
   -0.0109   -6.1625   22.3148 C   0  0  0  0  0  0
    5.0843   -5.7670   26.9380 C   0  0  1  0  0  0
    6.3398   -5.4682   26.1414 C   0  0  0  0  0  0
    7.5971   -5.7636   26.7165 C   0  0  0  0  0  0
    8.7885   -5.5026   26.0180 C   0  0  0  0  0  0
    8.6988   -4.9518   24.7297 C   0  0  0  0  0  0
    7.5252   -4.6356   24.1534 N   0  0  0  0  0  0
    6.3925   -4.8791   24.8468 C   0  0  0  0  0  0
    4.6997   -4.6216   27.8151 N   0  0  0  0  0  0
    4.7726   -4.5814   29.1786 C   0  0  0  0  0  0
    4.3072   -3.6304   29.8122 O   0  0  0  0  0  0
    5.4878   -5.5972   29.9908 C   0  0  0  0  0  0
    5.6065   -6.9636   29.9844 C   0  0  0  0  0  0
    6.3923   -7.3192   31.1174 C   0  0  0  0  0  0
    6.6501   -6.1578   31.7742 C   0  0  0  0  0  0
    6.1121   -5.1143   31.1024 O   0  0  0  0  0  0
    4.1785   -3.4549   27.1684 C   0  0  0  0  0  0
    2.8098   -3.1096   27.2652 C   0  0  0  0  0  0
    2.3211   -1.9461   26.6393 C   0  0  0  0  0  0
    3.1841   -1.1265   25.8766 C   0  0  0  0  0  0
    2.7053    0.0732   25.2000 C   0  0  0  0  0  0
    1.6083    0.7835   25.6495 N   0  0  0  0  0  0
    1.3011    1.8431   24.8718 N   0  0  0  0  0  0
    2.2209    1.7924   23.9216 C   0  0  0  0  0  0
    3.1367    0.7285   24.0806 C   0  0  0  0  0  0
    4.2406    0.4975   23.0850 C   0  0  0  0  0  0
    3.9422    1.1650   21.8550 O   0  0  0  0  0  0
    3.6112    2.5518   22.0115 C   0  0  0  0  0  0
    2.2644    2.7302   22.7551 C   0  0  0  0  0  0
    4.5385   -1.4962   25.7712 C   0  0  0  0  0  0
    5.0457   -2.6109   26.4494 C   0  0  0  0  0  0
    5.1657   -6.9567   24.6739 H   0  0  0  0  0  0
    3.6001   -6.4437   22.8995 H   0  0  0  0  0  0
    3.5443   -8.1226   23.3708 H   0  0  0  0  0  0
    1.4364   -7.7535   24.6294 H   0  0  0  0  0  0
    1.5264   -6.0299   24.3517 H   0  0  0  0  0  0
    1.9191   -8.9631   21.9832 H   0  0  0  0  0  0
    0.6022   -9.1595   19.9093 H   0  0  0  0  0  0
   -1.1282   -7.4460   19.3537 H   0  0  0  0  0  0
   -0.1922   -5.3269   22.9733 H   0  0  0  0  0  0
    5.2870   -6.6579   27.5151 H   0  0  0  0  0  0
    7.6551   -6.2073   27.6990 H   0  0  0  0  0  0
    9.7459   -5.7488   26.4516 H   0  0  0  0  0  0
    9.5895   -4.7511   24.1522 H   0  0  0  0  0  0
    5.4881   -4.5809   24.3399 H   0  0  0  0  0  0
    5.1756   -7.6648   29.2872 H   0  0  0  0  0  0
    6.7261   -8.2988   31.4272 H   0  0  0  0  0  0
    7.1750   -5.8941   32.6832 H   0  0  0  0  0  0
    2.1353   -3.7355   27.8343 H   0  0  0  0  0  0
    1.2742   -1.7010   26.7329 H   0  0  0  0  0  0
    1.0669    0.5589   26.4734 H   0  0  0  0  0  0
    4.3809   -0.5616   22.8729 H   0  0  0  0  0  0
    5.1937    0.8674   23.4619 H   0  0  0  0  0  0
    4.4109    3.0365   22.5729 H   0  0  0  0  0  0
    3.5748    3.0347   21.0345 H   0  0  0  0  0  0
    2.1413    3.7636   23.0729 H   0  0  0  0  0  0
    1.4413    2.5042   22.0771 H   0  0  0  0  0  0
    5.2304   -0.9046   25.1964 H   0  0  0  0  0  0
    6.1045   -2.8100   26.4037 H   0  0  0  0  0  0
  1  2  2  0  0  0
  2  3  1  0  0  0
  2 13  1  0  0  0
  3  4  1  0  0  0
  3 43  1  0  0  0
  4  5  1  0  0  0
  4 44  1  0  0  0
  4 45  1  0  0  0
  5  6  1  0  0  0
  5 46  1  0  0  0
  5 47  1  0  0  0
  6  7  2  0  0  0
  6 12  1  0  0  0
  7  8  1  0  0  0
  7 48  1  0  0  0
  8  9  2  0  0  0
  8 49  1  0  0  0
  9 10  1  0  0  0
  9 50  1  0  0  0
 10 11  1  0  0  0
 10 12  2  0  0  0
 12 51  1  0  0  0
 13 14  1  0  0  0
 13 20  1  0  0  0
 13 52  1  0  0  0
 14 15  2  0  0  0
 14 19  1  0  0  0
 15 16  1  0  0  0
 15 53  1  0  0  0
 16 17  2  0  0  0
 16 54  1  0  0  0
 17 18  1  0  0  0
 17 55  1  0  0  0
 18 19  2  0  0  0
 19 56  1  0  0  0
 20 21  1  0  0  0
 20 28  1  0  0  0
 21 22  2  0  0  0
 21 23  1  0  0  0
 23 24  2  0  0  0
 23 27  1  0  0  0
 24 25  1  0  0  0
 24 57  1  0  0  0
 25 26  2  0  0  0
 25 58  1  0  0  0
 26 27  1  0  0  0
 26 59  1  0  0  0
 28 29  2  0  0  0
 28 42  1  0  0  0
 29 30  1  0  0  0
 29 60  1  0  0  0
 30 31  2  0  0  0
 30 61  1  0  0  0
 31 41  1  0  0  0
 31 32  1  0  0  0
 32 33  1  0  0  0
 32 36  2  0  0  0
 33 34  1  0  0  0
 33 62  1  0  0  0
 34 35  2  0  0  0
 35 40  1  0  0  0
 35 36  1  0  0  0
 36 37  1  0  0  0
 37 38  1  0  0  0
 37 63  1  0  0  0
 37 64  1  0  0  0
 38 39  1  0  0  0
 39 40  1  0  0  0
 39 65  1  0  0  0
 39 66  1  0  0  0
 40 67  1  0  0  0
 40 68  1  0  0  0
 41 42  2  0  0  0
 41 69  1  0  0  0
 42 70  1  0  0  0
M  END
> <s_m_entry_id>
3683

> <s_m_entry_name>
Compounds-withfrags-for-validation-docking.1878

> <s_m_Source_Path>
/home/rodolpho/data/melina/maestro/glide-dock_XP_5RGK_M-PRO_VALIDATION

> <s_m_Source_File>
glide-dock_XP_5RGK_M-PRO_VALIDATION_pv.maegz

> <i_m_Source_File_Index>
3683

> <CID>
ALP-POS-b0bc6a46-16

> <Potency>
43.0301

> <pIC50>
4.36623

> <Source>
Postera

> <smiles>
O=C(NCCc1cccc(F)c1)C(c1cccnc1)N(C(=O)c1ccco1)c1ccc(-c2n[nH]c3c2COCC3)cc1

> <Outcome>
Inactive

> <StandardizerResult>
Clear Stereo (ID: ClearStereo)
Wedge Clean (ID: WedgeClean)
Mesomerize (ID: Mesomerize)
Tautomerize (ID: Tautomerize)
Aromatize (ID: Aromatize)
Add Explicit Hydrogens (ID: AddExplicitH)
Neutralize (ID: Neutralize)
Clean 2D (ID: Clean2D)

> <chiral flag>
0

> <version>
0

> <i_lp_mmshare_version>
41011

> <i_f3d_flags>
0

> <s_epik_input>
RmMoW2NIXTEpW2NIXVtjSF1bY0hdYzFbQ0gyXVtDSDJdW05IXUMoPU8pW0NAQEhdKGMyW2NIXVtjSF1bY0hdbltjSF0yKU4oQyg9TyljM1tjSF1bY0hdW2NIXW8zKWM0W2NIXVtjSF1jKFtjSF1bY0hdNCktYyhuW25IXTUpYyhjNTYpW0NIMl1PW0NIMl1bQ0gyXTY=

> <s_epik_cmdline>
J2VwaWtfcHl0aG9uJywgJy1waHQnLCAnMC41JywgJy1waCcsICc3LjQnLCAnLXRuJywgJzgnLCAnLW1hJywgJzIwMCcsICctaW1hZScsICc8aW5maWxlLm1hZT4nLCAnLW9tYWUnLCAnPG91dGZpbGUubWFlPic=

> <r_lp_tautomer_probability>
0.5

> <r_epik_Ionization_Penalty>
6.0E-4

> <r_epik_Ionization_Penalty_Charging>
0.0

> <r_epik_Ionization_Penalty_Neutral>
6.0E-4

> <r_epik_State_Penalty>
0.4107

> <r_epik_Charging_Adjusted_Penalty>
0.41068

> <i_epik_Tot_Q>
0

> <i_epik_Tot_abs_Q>
0

> <s_lp_Force_Field>
OPLS3

> <r_lp_Energy>
73.0719

> <b_lp_Chiralities_Consistent>
1

> <s_lp_Variant>
ligprep_COVID_compounds-withfrags-smallmolecules-forvalidation.maegz:39-3

> <i_glide_original_lignum>
183

> <s_i_glide_gridfile>
glide-grid_5RGK_M-PRO_COVID

> <i_i_glide_lignum>
183

> <r_i_docking_score>
-2.24831985150843

> <r_i_glide_ligand_efficiency>
-0.053531425035915

> <r_i_glide_ligand_efficiency_sa>
-0.186076659531751

> <r_i_glide_ligand_efficiency_ln>
-0.474562397266334

> <r_glide_XP_GScore>
-2.65899985150843

> <r_i_glide_gscore>
-2.65899985150843

> <r_i_glide_evdw>
-39.0961723327637

> <r_i_glide_ecoul>
-7.42355728149414

> <r_i_glide_energy>
-46.5197296142578

> <r_i_glide_einternal>
13.211820602417

> <r_i_glide_emodel>
-51.4063019795979

> <r_glide_XP_HBond>
-0.679066895666311

> <i_i_glide_confnum>
3

> <i_i_glide_posenum>
56

> <r_i_glide_eff_state_penalty>
0.41068

> <i_glide_XP_PoseRank>
1

> <MW>
565.21

> <cLogP>
5.02

> <TPSA>
113.35

> <Rotatable Bonds>
9

> <Fraction sp3>
0.19

> <HBA>
6

> <HBD>
2

> <s_epik_Chemistry_Notes>


> <Structure ID>


> <Submission Fragments>


$$$$
ligprep_COVID_compounds-withfrags-smallmolecules-forvalidation.maegz:26
                    3D
 Structure written by MMmdl.
 70 73  0  0  1  0            999 V2000
    1.6120    1.0243   27.1690 C   0  0  0  0  0  0
    2.6263    0.1070   27.5516 O   0  0  0  0  0  0
    2.4330   -1.2305   27.4337 C   0  0  0  0  0  0
    1.3987   -1.7498   27.0017 O   0  0  0  0  0  0
    3.6459   -2.1105   27.8830 C   0  0  1  0  0  0
    3.2196   -3.5844   27.6016 C   0  0  0  0  0  0
    4.9504   -1.7785   27.0568 C   0  0  0  0  0  0
    5.8414   -2.9023   26.6560 N   0  0  0  0  0  0
    5.7411   -4.1778   27.1631 C   0  0  0  0  0  0
    6.3389   -4.5642   28.1679 O   0  0  0  0  0  0
    4.9008   -5.1402   26.4920 C   0  0  0  0  0  0
    4.5979   -5.3560   25.1489 C   0  0  0  0  0  0
    3.8093   -6.5054   25.0881 C   0  0  0  0  0  0
    3.7133   -6.9785   26.3850 C   0  0  0  0  0  0
    4.4009   -6.1685   27.2306 O   0  0  0  0  0  0
    6.8492   -2.4779   25.6306 C   0  0  1  0  0  0
    7.9579   -1.4801   26.0589 C   0  0  0  0  0  0
    8.7740   -1.7882   26.9300 O   0  0  0  0  0  0
    7.9692   -0.3078   25.4035 N   0  0  0  0  0  0
    9.0498    0.1524   24.5310 C   0  0  0  0  0  0
    9.6916    1.4804   24.9956 C   0  0  0  0  0  0
   10.8892    1.9246   24.1622 C   0  0  0  0  0  0
   11.9449    1.0403   23.9178 C   0  0  0  0  0  0
   13.0213    1.4349   23.1220 C   0  0  0  0  0  0
   13.0488    2.7151   22.5685 C   0  0  0  0  0  0
   12.0004    3.6023   22.8114 C   0  0  0  0  0  0
   12.0230    4.8415   22.2710 F   0  0  0  0  0  0
   10.9245    3.2088   23.6071 C   0  0  0  0  0  0
    7.4076   -3.6695   24.8769 C   0  0  0  0  0  0
    8.2524   -4.6202   25.4714 C   0  0  0  0  0  0
    8.7449   -5.6846   24.7146 C   0  0  0  0  0  0
    8.3811   -5.7702   23.3709 C   0  0  0  0  0  0
    7.5715   -4.8641   22.7674 N   0  0  0  0  0  0
    7.1022   -3.8364   23.5197 C   0  0  0  0  0  0
    3.8592   -1.8162   29.4008 C   0  0  0  0  0  0
    3.7540   -2.8319   30.3701 C   0  0  0  0  0  0
    3.9738   -2.5694   31.7217 C   0  0  0  0  0  0
    4.3100   -1.2854   32.1378 C   0  0  0  0  0  0
    4.4217   -0.2628   31.2009 C   0  0  0  0  0  0
    4.1973   -0.5199   29.8486 C   0  0  0  0  0  0
    4.3220    0.5059   28.9748 F   0  0  0  0  0  0
    1.9555    2.0446   27.3389 H   0  0  0  0  0  0
    0.7032    0.8711   27.7527 H   0  0  0  0  0  0
    1.3693    0.9215   26.1104 H   0  0  0  0  0  0
    2.3059   -3.8649   28.1292 H   0  0  0  0  0  0
    3.9862   -4.2971   27.9063 H   0  0  0  0  0  0
    3.0303   -3.7547   26.5406 H   0  0  0  0  0  0
    4.6675   -1.2042   26.1816 H   0  0  0  0  0  0
    5.5568   -1.0691   27.6202 H   0  0  0  0  0  0
    4.9112   -4.7540   24.3084 H   0  0  0  0  0  0
    3.3820   -6.9520   24.2025 H   0  0  0  0  0  0
    3.2317   -7.8364   26.8302 H   0  0  0  0  0  0
    6.2924   -1.9089   24.8904 H   0  0  0  0  0  0
    7.1572    0.2895   25.4655 H   0  0  0  0  0  0
    9.8131   -0.6259   24.5064 H   0  0  0  0  0  0
    8.6990    0.2590   23.5020 H   0  0  0  0  0  0
    8.9392    2.2706   24.9819 H   0  0  0  0  0  0
    9.9958    1.3952   26.0398 H   0  0  0  0  0  0
   11.9261    0.0428   24.3319 H   0  0  0  0  0  0
   13.8310    0.7466   22.9299 H   0  0  0  0  0  0
   13.8806    3.0180   21.9496 H   0  0  0  0  0  0
   10.1115    3.8985   23.7787 H   0  0  0  0  0  0
    8.5390   -4.5357   26.5083 H   0  0  0  0  0  0
    9.3971   -6.4217   25.1590 H   0  0  0  0  0  0
    8.7445   -6.5782   22.7531 H   0  0  0  0  0  0
    6.4653   -3.1307   23.0062 H   0  0  0  0  0  0
    3.5076   -3.8470   30.1016 H   0  0  0  0  0  0
    3.8911   -3.3663   32.4462 H   0  0  0  0  0  0
    4.4869   -1.0833   33.1839 H   0  0  0  0  0  0
    4.6855    0.7340   31.5227 H   0  0  0  0  0  0
  1  2  1  0  0  0
  1 42  1  0  0  0
  1 43  1  0  0  0
  1 44  1  0  0  0
  2  3  1  0  0  0
  3  4  2  0  0  0
  3  5  1  0  0  0
  5  6  1  0  0  0
  5  7  1  0  0  0
  5 35  1  0  0  0
  6 45  1  0  0  0
  6 46  1  0  0  0
  6 47  1  0  0  0
  7  8  1  0  0  0
  7 48  1  0  0  0
  7 49  1  0  0  0
  8  9  1  0  0  0
  8 16  1  0  0  0
  9 10  2  0  0  0
  9 11  1  0  0  0
 11 12  2  0  0  0
 11 15  1  0  0  0
 12 13  1  0  0  0
 12 50  1  0  0  0
 13 14  2  0  0  0
 13 51  1  0  0  0
 14 15  1  0  0  0
 14 52  1  0  0  0
 16 17  1  0  0  0
 16 29  1  0  0  0
 16 53  1  0  0  0
 17 18  2  0  0  0
 17 19  1  0  0  0
 19 20  1  0  0  0
 19 54  1  0  0  0
 20 21  1  0  0  0
 20 55  1  0  0  0
 20 56  1  0  0  0
 21 22  1  0  0  0
 21 57  1  0  0  0
 21 58  1  0  0  0
 22 23  2  0  0  0
 22 28  1  0  0  0
 23 24  1  0  0  0
 23 59  1  0  0  0
 24 25  2  0  0  0
 24 60  1  0  0  0
 25 26  1  0  0  0
 25 61  1  0  0  0
 26 27  1  0  0  0
 26 28  2  0  0  0
 28 62  1  0  0  0
 29 30  2  0  0  0
 29 34  1  0  0  0
 30 31  1  0  0  0
 30 63  1  0  0  0
 31 32  2  0  0  0
 31 64  1  0  0  0
 32 33  1  0  0  0
 32 65  1  0  0  0
 33 34  2  0  0  0
 34 66  1  0  0  0
 35 36  2  0  0  0
 35 40  1  0  0  0
 36 37  1  0  0  0
 36 67  1  0  0  0
 37 38  2  0  0  0
 37 68  1  0  0  0
 38 39  1  0  0  0
 38 69  1  0  0  0
 39 40  2  0  0  0
 39 70  1  0  0  0
 40 41  1  0  0  0
M  END
> <s_m_entry_id>
3685

> <s_m_entry_name>
Compounds-withfrags-for-validation-docking.1891

> <s_m_Source_Path>
/home/rodolpho/data/melina/maestro/glide-dock_XP_5RGK_M-PRO_VALIDATION

> <s_m_Source_File>
glide-dock_XP_5RGK_M-PRO_VALIDATION_pv.maegz

> <i_m_Source_File_Index>
3685

> <CID>
ALP-POS-b0bc6a46-29

> <Potency>
99.5

> <pIC50>
4.00218

> <Source>
Postera

> <smiles>
COC(=O)C(C)(CN(C(=O)c1ccco1)C(C(=O)NCCc1cccc(F)c1)c1cccnc1)c1ccccc1F

> <Outcome>
Inactive

> <StandardizerResult>
Clear Stereo (ID: ClearStereo)
Wedge Clean (ID: WedgeClean)
Mesomerize (ID: Mesomerize)
Tautomerize (ID: Tautomerize)
Aromatize (ID: Aromatize)
Add Explicit Hydrogens (ID: AddExplicitH)
Neutralize (ID: Neutralize)
Clean 2D (ID: Clean2D)

> <chiral flag>
0

> <version>
0

> <i_lp_mmshare_version>
41011

> <i_f3d_flags>
0

> <s_epik_input>
RmMxW2NIXVtjSF1bY0hdW2NIXWMxW0NAQF0oW0NIM10pKEMoPU8pT1tDSDNdKVtDSDJdTihDKD1PKWMyW2NIXVtjSF1bY0hdbzIpW0NASF0oYzNbY0hdW2NIXVtjSF1uW2NIXTMpQyg9TylbTkhdW0NIMl1bQ0gyXWM0W2NIXVtjSF1bY0hdYyhGKVtjSF00

> <s_epik_cmdline>
J2VwaWtfcHl0aG9uJywgJy1waHQnLCAnMC41JywgJy1waCcsICc3LjQnLCAnLXRuJywgJzgnLCAnLW1hJywgJzIwMCcsICctaW1hZScsICc8aW5maWxlLm1hZT4nLCAnLW9tYWUnLCAnPG91dGZpbGUubWFlPic=

> <r_lp_tautomer_probability>
1.0

> <r_epik_Ionization_Penalty>
7.0E-4

> <r_epik_Ionization_Penalty_Charging>
0.0

> <r_epik_Ionization_Penalty_Neutral>
7.0E-4

> <r_epik_State_Penalty>
0.0

> <r_epik_Charging_Adjusted_Penalty>
0.0

> <i_epik_Tot_Q>
0

> <i_epik_Tot_abs_Q>
0

> <s_lp_Force_Field>
OPLS3

> <r_lp_Energy>
67.0755

> <b_lp_Chiralities_Consistent>
1

> <s_lp_Variant>
ligprep_COVID_compounds-withfrags-smallmolecules-forvalidation.maegz:26-1

> <i_glide_original_lignum>
145

> <s_i_glide_gridfile>
glide-grid_5RGK_M-PRO_COVID

> <i_i_glide_lignum>
145

> <r_i_docking_score>
-2.243070439601

> <r_i_glide_ligand_efficiency>
-0.0547090351122196

> <r_i_glide_ligand_efficiency_sa>
-0.18864863784514

> <r_i_glide_ligand_efficiency_ln>
-0.475874858357547

> <r_glide_XP_GScore>
-2.243070439601

> <r_i_glide_gscore>
-2.243070439601

> <r_i_glide_evdw>
-39.9808654785156

> <r_i_glide_ecoul>
-10.6199159622192

> <r_i_glide_energy>
-50.6007814407349

> <r_i_glide_einternal>
7.68406009674072

> <r_i_glide_emodel>
-61.5724569018044

> <r_glide_XP_HBond>
0.0

> <i_i_glide_confnum>
2

> <i_i_glide_posenum>
2

> <r_i_glide_eff_state_penalty>
0.0

> <i_glide_XP_PoseRank>
1

> <s_epik_Chemistry_Notes>
This compound has an ester and may undergo hydrolysis at high or low pH.

> <MW>
561.21

> <cLogP>
4.63

> <TPSA>
101.74

> <Rotatable Bonds>
11

> <Fraction sp3>
0.23

> <HBA>
6

> <HBD>
1

> <Structure ID>


> <Submission Fragments>


$$$$
ligprep_COVID_compounds-withfrags-smallmolecules-forvalidation.maegz:26
                    3D
 Structure written by MMmdl.
 70 73  0  0  1  0            999 V2000
    7.9725    4.8536   31.0924 C   0  0  0  0  0  0
    7.5750    5.5922   29.9464 O   0  0  0  0  0  0
    6.7590    5.0396   29.0138 C   0  0  0  0  0  0
    6.2936    3.8971   29.0845 O   0  0  0  0  0  0
    6.4514    5.9676   27.7885 C   0  0  2  0  0  0
    5.8865    7.2634   28.4520 C   0  0  0  0  0  0
    5.3737    5.3091   26.8381 C   0  0  0  0  0  0
    5.2535    5.7888   25.4214 N   0  0  0  0  0  0
    5.3306    7.1405   25.1859 C   0  0  0  0  0  0
    5.2502    7.9975   26.0683 O   0  0  0  0  0  0
    5.5565    7.5822   23.8282 C   0  0  0  0  0  0
    6.3066    7.0425   22.7850 C   0  0  0  0  0  0
    6.2801    7.9680   21.7410 C   0  0  0  0  0  0
    5.5741    9.0614   22.2111 C   0  0  0  0  0  0
    5.1689    8.8425   23.4885 O   0  0  0  0  0  0
    5.5136    4.7687   24.3324 C   0  0  2  0  0  0
    4.5326    3.5682   24.1972 C   0  0  0  0  0  0
    3.9394    3.1699   25.2000 O   0  0  0  0  0  0
    4.3750    3.0363   22.9708 N   0  0  0  0  0  0
    3.4733    1.9317   22.6582 C   0  0  0  0  0  0
    3.2264    1.7494   21.1478 C   0  0  0  0  0  0
    4.3790    1.0397   20.4536 C   0  0  0  0  0  0
    4.7759    1.4303   19.1702 C   0  0  0  0  0  0
    5.8388    0.7852   18.5368 C   0  0  0  0  0  0
    6.5110   -0.2523   19.1834 C   0  0  0  0  0  0
    6.1205   -0.6452   20.4640 C   0  0  0  0  0  0
    6.7735   -1.6496   21.0912 F   0  0  0  0  0  0
    5.0572   -0.0008   21.0980 C   0  0  0  0  0  0
    6.9100    4.1711   24.3664 C   0  0  0  0  0  0
    7.8426    4.3836   23.3373 C   0  0  0  0  0  0
    9.1219    3.8341   23.4307 C   0  0  0  0  0  0
    9.4455    3.0938   24.5678 C   0  0  0  0  0  0
    8.5758    2.8939   25.5898 N   0  0  0  0  0  0
    7.3365    3.4364   25.4803 C   0  0  0  0  0  0
    7.7822    6.2196   27.0097 C   0  0  0  0  0  0
    8.0317    5.5935   25.7735 C   0  0  0  0  0  0
    9.2236    5.8020   25.0813 C   0  0  0  0  0  0
   10.2022    6.6361   25.6116 C   0  0  0  0  0  0
    9.9919    7.2508   26.8417 C   0  0  0  0  0  0
    8.8047    7.0360   27.5421 C   0  0  0  0  0  0
    8.6691    7.6173   28.7572 F   0  0  0  0  0  0
    8.6264    5.4633   31.7158 H   0  0  0  0  0  0
    8.5191    3.9530   30.8082 H   0  0  0  0  0  0
    7.1078    4.5635   31.6910 H   0  0  0  0  0  0
    6.5993    7.7157   29.1449 H   0  0  0  0  0  0
    4.9724    7.0656   29.0155 H   0  0  0  0  0  0
    5.6354    8.0409   27.7343 H   0  0  0  0  0  0
    5.5507    4.2368   26.8450 H   0  0  0  0  0  0
    4.4082    5.3983   27.3297 H   0  0  0  0  0  0
    6.8101    6.0869   22.7798 H   0  0  0  0  0  0
    6.7427    7.8644   20.7709 H   0  0  0  0  0  0
    5.3127   10.0183   21.7838 H   0  0  0  0  0  0
    5.3991    5.3167   23.3967 H   0  0  0  0  0  0
    4.9087    3.4158   22.2025 H   0  0  0  0  0  0
    3.9208    1.0235   23.0639 H   0  0  0  0  0  0
    2.5261    2.0589   23.1871 H   0  0  0  0  0  0
    2.3080    1.1848   20.9774 H   0  0  0  0  0  0
    3.0662    2.7192   20.6736 H   0  0  0  0  0  0
    4.2633    2.2348   18.6630 H   0  0  0  0  0  0
    6.1421    1.0901   17.5460 H   0  0  0  0  0  0
    7.3341   -0.7506   18.6926 H   0  0  0  0  0  0
    4.7628   -0.3097   22.0907 H   0  0  0  0  0  0
    7.5749    4.9677   22.4687 H   0  0  0  0  0  0
    9.8451    3.9806   22.6421 H   0  0  0  0  0  0
   10.4250    2.6516   24.6764 H   0  0  0  0  0  0
    6.6736    3.2737   26.3177 H   0  0  0  0  0  0
    7.3122    4.9322   25.3186 H   0  0  0  0  0  0
    9.3881    5.3134   24.1321 H   0  0  0  0  0  0
   11.1261    6.7975   25.0761 H   0  0  0  0  0  0
   10.7588    7.8830   27.2645 H   0  0  0  0  0  0
  1  2  1  0  0  0
  1 42  1  0  0  0
  1 43  1  0  0  0
  1 44  1  0  0  0
  2  3  1  0  0  0
  3  4  2  0  0  0
  3  5  1  0  0  0
  5  6  1  0  0  0
  5  7  1  0  0  0
  5 35  1  0  0  0
  6 45  1  0  0  0
  6 46  1  0  0  0
  6 47  1  0  0  0
  7  8  1  0  0  0
  7 48  1  0  0  0
  7 49  1  0  0  0
  8  9  1  0  0  0
  8 16  1  0  0  0
  9 10  2  0  0  0
  9 11  1  0  0  0
 11 12  2  0  0  0
 11 15  1  0  0  0
 12 13  1  0  0  0
 12 50  1  0  0  0
 13 14  2  0  0  0
 13 51  1  0  0  0
 14 15  1  0  0  0
 14 52  1  0  0  0
 16 17  1  0  0  0
 16 29  1  0  0  0
 16 53  1  0  0  0
 17 18  2  0  0  0
 17 19  1  0  0  0
 19 20  1  0  0  0
 19 54  1  0  0  0
 20 21  1  0  0  0
 20 55  1  0  0  0
 20 56  1  0  0  0
 21 22  1  0  0  0
 21 57  1  0  0  0
 21 58  1  0  0  0
 22 23  2  0  0  0
 22 28  1  0  0  0
 23 24  1  0  0  0
 23 59  1  0  0  0
 24 25  2  0  0  0
 24 60  1  0  0  0
 25 26  1  0  0  0
 25 61  1  0  0  0
 26 27  1  0  0  0
 26 28  2  0  0  0
 28 62  1  0  0  0
 29 30  2  0  0  0
 29 34  1  0  0  0
 30 31  1  0  0  0
 30 63  1  0  0  0
 31 32  2  0  0  0
 31 64  1  0  0  0
 32 33  1  0  0  0
 32 65  1  0  0  0
 33 34  2  0  0  0
 34 66  1  0  0  0
 35 36  2  0  0  0
 35 40  1  0  0  0
 36 37  1  0  0  0
 36 67  1  0  0  0
 37 38  2  0  0  0
 37 68  1  0  0  0
 38 39  1  0  0  0
 38 69  1  0  0  0
 39 40  2  0  0  0
 39 70  1  0  0  0
 40 41  1  0  0  0
M  END
> <s_m_entry_id>
3720

> <s_m_entry_name>
Compounds-withfrags-for-validation-docking.1891

> <s_m_Source_Path>
/home/rodolpho/data/melina/maestro/glide-dock_XP_5RGK_M-PRO_VALIDATION

> <s_m_Source_File>
glide-dock_XP_5RGK_M-PRO_VALIDATION_pv.maegz

> <i_m_Source_File_Index>
3720

> <CID>
ALP-POS-b0bc6a46-29

> <Potency>
99.5

> <pIC50>
4.00218

> <Source>
Postera

> <smiles>
COC(=O)C(C)(CN(C(=O)c1ccco1)C(C(=O)NCCc1cccc(F)c1)c1cccnc1)c1ccccc1F

> <Outcome>
Inactive

> <StandardizerResult>
Clear Stereo (ID: ClearStereo)
Wedge Clean (ID: WedgeClean)
Mesomerize (ID: Mesomerize)
Tautomerize (ID: Tautomerize)
Aromatize (ID: Aromatize)
Add Explicit Hydrogens (ID: AddExplicitH)
Neutralize (ID: Neutralize)
Clean 2D (ID: Clean2D)

> <chiral flag>
0

> <version>
0

> <i_lp_mmshare_version>
41011

> <i_f3d_flags>
0

> <s_epik_input>
RmMxW2NIXVtjSF1bY0hdW2NIXWMxW0NAXShbQ0gzXSkoQyg9TylPW0NIM10pW0NIMl1OKEMoPU8pYzJbY0hdW2NIXVtjSF1vMilbQ0BASF0oYzNbY0hdW2NIXVtjSF1uW2NIXTMpQyg9TylbTkhdW0NIMl1bQ0gyXWM0W2NIXVtjSF1bY0hdYyhGKVtjSF00

> <s_epik_cmdline>
J2VwaWtfcHl0aG9uJywgJy1waHQnLCAnMC41JywgJy1waCcsICc3LjQnLCAnLXRuJywgJzgnLCAnLW1hJywgJzIwMCcsICctaW1hZScsICc8aW5maWxlLm1hZT4nLCAnLW9tYWUnLCAnPG91dGZpbGUubWFlPic=

> <r_lp_tautomer_probability>
1.0

> <r_epik_Ionization_Penalty>
7.0E-4

> <r_epik_Ionization_Penalty_Charging>
0.0

> <r_epik_Ionization_Penalty_Neutral>
7.0E-4

> <r_epik_State_Penalty>
0.0

> <r_epik_Charging_Adjusted_Penalty>
0.0

> <i_epik_Tot_Q>
0

> <i_epik_Tot_abs_Q>
0

> <s_lp_Force_Field>
OPLS3

> <r_lp_Energy>
71.9172

> <b_lp_Chiralities_Consistent>
1

> <s_lp_Variant>
ligprep_COVID_compounds-withfrags-smallmolecules-forvalidation.maegz:26-4

> <i_glide_original_lignum>
148

> <s_i_glide_gridfile>
glide-grid_5RGK_M-PRO_COVID

> <i_i_glide_lignum>
148

> <r_i_docking_score>
-2.11823737829111

> <r_i_glide_ligand_efficiency>
-0.0516643262997833

> <r_i_glide_ligand_efficiency_sa>
-0.178149820439147

> <r_i_glide_ligand_efficiency_ln>
-0.449391108975272

> <r_glide_XP_GScore>
-2.11823737829111

> <r_i_glide_gscore>
-2.11823737829111

> <r_i_glide_evdw>
-27.0441913604736

> <r_i_glide_ecoul>
-8.90934276580811

> <r_i_glide_energy>
-35.9535341262817

> <r_i_glide_einternal>
16.2392120361328

> <r_i_glide_emodel>
-40.058479309082

> <r_glide_XP_HBond>
-0.227194519704885

> <i_i_glide_confnum>
1

> <i_i_glide_posenum>
12

> <r_i_glide_eff_state_penalty>
0.0

> <i_glide_XP_PoseRank>
1

> <s_epik_Chemistry_Notes>
This compound has an ester and may undergo hydrolysis at high or low pH.

> <MW>
561.21

> <cLogP>
4.63

> <TPSA>
101.74

> <Rotatable Bonds>
11

> <Fraction sp3>
0.23

> <HBA>
6

> <HBD>
1

> <Structure ID>


> <Submission Fragments>


$$$$
ligprep_COVID_compounds-withfrags-smallmolecules-forvalidation.maegz:6
                    3D
 Structure written by MMmdl.
 57 60  0  0  1  0            999 V2000
    1.4561    3.1582   19.5878 C   0  0  0  0  0  0
    2.3208    2.7205   20.8025 C   0  0  2  0  0  0
    3.5226    1.8383   20.4053 C   0  0  0  0  0  0
    3.9777    1.7299   19.0795 C   0  0  0  0  0  0
    5.0705    0.9424   18.7431 C   0  0  0  0  0  0
    5.7409    0.2401   19.7313 C   0  0  0  0  0  0
    5.3222    0.3204   21.0565 C   0  0  0  0  0  0
    6.0384   -0.4181   21.9679 O   0  0  0  0  0  0
    4.2018    1.1107   21.4153 C   0  0  0  0  0  0
    3.7732    1.2328   22.8611 C   0  0  0  0  0  0
    4.5916    1.0762   23.7703 O   0  0  0  0  0  0
    2.3099    1.4592   23.0697 C   0  0  0  0  0  0
    1.4740    1.8916   21.8368 C   0  0  1  0  0  0
    0.0946    2.4917   22.2607 C   0  0  1  0  0  0
   -0.6122    1.5844   23.3177 C   0  0  2  0  0  0
   -2.1433    1.8237   23.6088 C   0  0  2  0  0  0
   -2.8392    2.3769   22.3210 N   0  3  0  0  0  0
   -2.5870    1.6122   21.0009 C   0  0  0  0  0  0
   -2.6090    3.8880   22.1186 C   0  0  0  0  0  0
   -2.3960    2.6325   24.9043 C   0  0  0  0  0  0
   -3.6690    2.7356   25.1046 O   0  5  0  0  0  0
   -1.4409    3.0781   25.7805 C   0  0  0  0  0  0
   -1.8044    3.8645   26.9656 C   0  0  0  0  0  0
   -1.1508    3.5741   28.0979 N   0  0  0  0  0  0
   -2.6701    4.7391   26.9517 O   0  0  0  0  0  0
   -0.0208    2.7225   25.5116 C   0  0  0  0  0  0
    0.9086    3.4029   25.9573 O   0  0  0  0  0  0
    0.2303    1.4604   24.6287 C   0  0  2  0  0  0
    1.7355    1.2711   24.2951 C   0  0  0  0  0  0
    2.4112    0.8903   25.4236 O   0  0  0  0  0  0
   -0.2475    0.3288   25.3534 O   0  0  0  0  0  0
    0.1804    3.8460   22.6663 O   0  0  0  0  0  0
    2.7738    3.9414   21.3668 O   0  0  0  0  0  0
    1.0517    2.2966   19.0552 H   0  0  0  0  0  0
    2.0234    3.7559   18.8733 H   0  0  0  0  0  0
    0.6126    3.7828   19.8826 H   0  0  0  0  0  0
    3.4939    2.2632   18.2766 H   0  0  0  0  0  0
    5.3988    0.8795   17.7161 H   0  0  0  0  0  0
    6.5923   -0.3694   19.4640 H   0  0  0  0  0  0
    6.7644   -0.9009   21.5652 H   0  0  0  0  0  0
    1.2266    0.9541   21.3321 H   0  0  0  0  0  0
   -0.5191    2.5100   21.3617 H   0  0  0  0  0  0
   -0.5942    0.5975   22.8479 H   0  0  0  0  0  0
   -2.5795    0.8354   23.7753 H   0  0  0  0  0  0
   -1.6075    1.8980   20.6160 H   0  0  0  0  0  0
   -3.3785    1.9113   20.3132 H   0  0  0  0  0  0
   -2.6322    0.5442   21.2031 H   0  0  0  0  0  0
   -1.5414    4.0413   21.9544 H   0  0  0  0  0  0
   -2.9554    4.3909   23.0222 H   0  0  0  0  0  0
   -3.1985    4.1954   21.2540 H   0  0  0  0  0  0
   -0.4314    2.8666   28.1041 H   0  0  0  0  0  0
   -1.3649    4.0757   28.9471 H   0  0  0  0  0  0
    1.8080    0.8843   26.1707 H   0  0  0  0  0  0
    0.2670    0.2424   26.1596 H   0  0  0  0  0  0
    1.0901    4.1396   22.5707 H   0  0  0  0  0  0
    3.5358    4.2434   20.8671 H   0  0  0  0  0  0
   -3.8276    2.2712   22.5003 H   0  0  0  0  0  0
  1  2  1  0  0  0
  1 34  1  0  0  0
  1 35  1  0  0  0
  1 36  1  0  0  0
  2  3  1  0  0  0
  2 33  1  0  0  0
  2 13  1  0  0  0
  3  4  2  0  0  0
  3  9  1  0  0  0
  4  5  1  0  0  0
  4 37  1  0  0  0
  5  6  2  0  0  0
  5 38  1  0  0  0
  6  7  1  0  0  0
  6 39  1  0  0  0
  7  8  1  0  0  0
  7  9  2  0  0  0
  8 40  1  0  0  0
  9 10  1  0  0  0
 10 11  2  0  0  0
 10 12  1  0  0  0
 12 13  1  0  0  0
 12 29  2  0  0  0
 13 14  1  0  0  0
 13 41  1  0  0  0
 14 15  1  0  0  0
 14 32  1  0  0  0
 14 42  1  0  0  0
 15 16  1  0  0  0
 15 28  1  0  0  0
 15 43  1  0  0  0
 16 17  1  0  0  0
 16 20  1  0  0  0
 16 44  1  0  0  0
 17 18  1  0  0  0
 17 19  1  0  0  0
 17 57  1  0  0  0
 18 45  1  0  0  0
 18 46  1  0  0  0
 18 47  1  0  0  0
 19 48  1  0  0  0
 19 49  1  0  0  0
 19 50  1  0  0  0
 20 21  1  0  0  0
 20 22  2  0  0  0
 22 23  1  0  0  0
 22 26  1  0  0  0
 23 24  1  0  0  0
 23 25  2  0  0  0
 24 51  1  0  0  0
 24 52  1  0  0  0
 26 27  2  0  0  0
 26 28  1  0  0  0
 28 29  1  0  0  0
 28 31  1  0  0  0
 29 30  1  0  0  0
 30 53  1  0  0  0
 31 54  1  0  0  0
 32 55  1  0  0  0
 33 56  1  0  0  0
M  CHG  2  17   1  21  -1
M  END
> <s_m_entry_id>
3721

> <s_m_entry_name>
Compounds-withfrags-for-validation-docking.1911

> <s_m_Source_Path>
/home/rodolpho/data/melina/maestro/glide-dock_XP_5RGK_M-PRO_VALIDATION

> <s_m_Source_File>
glide-dock_XP_5RGK_M-PRO_VALIDATION_pv.maegz

> <i_m_Source_File_Index>
3721

> <CID>
Oxitetracyclin

> <Potency>
15.15

> <pIC50>
4.81959

> <Source>
https://doi.org/10.1101/2020.03.23.004580

> <smiles>
C(C1(C2=C(C(=C(C(O[H])=C2C(O[H])=C2C1(C(C1(C(N(C([H])([H])[H])C([H])([H])[H])([H])C(=O)C(=C(N([H])[H])O[H])C(=O)C1(C2=O)O[H])[H])(O[H])[H])[H])[H])[H])[H])O[H])([H])([H])[H]

> <Outcome>
Inactive

> <StandardizerResult>
Clear Stereo (ID: ClearStereo)
Wedge Clean (ID: WedgeClean)
Mesomerize (ID: Mesomerize)
Tautomerize (ID: Tautomerize)
Aromatize (ID: Aromatize)
Add Explicit Hydrogens (ID: AddExplicitH)
Neutralize (ID: Neutralize)
Clean 2D (ID: Clean2D)

> <chiral flag>
0

> <version>
0

> <i_lp_mmshare_version>
41011

> <i_f3d_flags>
0

> <s_epik_input>
W09IXWMxW2NIXVtjSF1bY0hdYyhbQ0BdMihbQ0gzXSlbT0hdKWMxQyg9TylDKD1DM1tPSF0pW0NASF0yW0NASF0oW09IXSlbQ0BASF0oW0NAQF0zNFtPSF0pW0NASF0oTihbQ0gzXSlbQ0gzXSlDKD1PKVtDQEhdKEM0PU8pQyg9TylbTkgyXQ==

> <s_epik_cmdline>
J2VwaWtfcHl0aG9uJywgJy1waHQnLCAnMC41JywgJy1waCcsICc3LjQnLCAnLXRuJywgJzgnLCAnLW1hJywgJzIwMCcsICctaW1hZScsICc8aW5maWxlLm1hZT4nLCAnLW9tYWUnLCAnPG91dGZpbGUubWFlPic=

> <r_epik_Ionization_Penalty>
0.6144

> <r_epik_Ionization_Penalty_Charging>
0.5087

> <r_epik_Ionization_Penalty_Neutral>
0.1057

> <r_epik_State_Penalty>
0.5157

> <r_epik_Charging_Adjusted_Penalty>
1.02439

> <i_epik_Tot_Q>
0

> <i_epik_Tot_abs_Q>
2

> <s_lp_Force_Field>
OPLS3

> <r_lp_Energy>
59.0512

> <b_lp_Chiralities_Consistent>
1

> <s_lp_Variant>
ligprep_COVID_compounds-withfrags-smallmolecules-forvalidation.maegz:6-42

> <i_glide_original_lignum>
94

> <s_i_glide_gridfile>
glide-grid_5RGK_M-PRO_COVID

> <i_i_glide_lignum>
94

> <r_i_docking_score>
-2.11735383170683

> <r_i_glide_ligand_efficiency>
-0.0641622373244495

> <r_i_glide_ligand_efficiency_sa>
-0.205802578667648

> <r_i_glide_ligand_efficiency_ln>
-0.47088852910019

> <r_glide_XP_GScore>
-2.63306083170683

> <r_i_glide_gscore>
-2.63306083170683

> <r_i_glide_evdw>
-16.0601558685303

> <r_i_glide_ecoul>
-4.95964574813843

> <r_i_glide_energy>
-21.0198016166687

> <r_i_glide_einternal>
6.42796945571899

> <r_i_glide_emodel>
-22.3626148505031

> <r_glide_XP_HBond>
-1.79139085853371

> <i_i_glide_confnum>
1

> <i_i_glide_posenum>
15

> <r_i_glide_eff_state_penalty>
0.515707

> <i_glide_XP_PoseRank>
1

> <r_lp_tautomer_probability>


> <s_epik_Chemistry_Notes>


> <MW>


> <cLogP>


> <TPSA>


> <Rotatable Bonds>


> <Fraction sp3>


> <HBA>


> <HBD>


> <Structure ID>


> <Submission Fragments>


$$$$
ligprep_COVID_compounds-withfrags-smallmolecules-forvalidation.maegz:99
                    3D
 Structure written by MMmdl.
 51 54  0  0  1  0            999 V2000
    6.3736   -1.9146   21.8533 N   0  3  0  0  0  0
    6.2478   -1.4425   20.4005 C   0  0  0  0  0  0
    5.3757   -0.2066   20.3626 C   0  0  0  0  0  0
    4.6994    0.4306   21.3950 C   0  0  0  0  0  0
    4.0480    1.4802   20.8005 N   0  0  0  0  0  0
    3.1723    2.4736   21.4173 C   0  0  0  0  0  0
    1.7386    2.5484   20.8356 C   0  0  0  0  0  0
    1.1588    1.5001   20.5392 O   0  0  0  0  0  0
    1.1449    3.7696   20.6919 N   0  0  0  0  0  0
    0.1234    4.2540   21.6401 C   0  0  0  0  0  0
    0.6305    4.3792   23.0664 C   0  0  0  0  0  0
    1.9496    4.7014   23.4249 C   0  0  0  0  0  0
    2.1636    4.7478   24.7955 C   0  0  0  0  0  0
    0.7298    4.3759   25.6879 S   0  0  0  0  0  0
   -0.1412    4.1596   24.2054 C   0  0  0  0  0  0
    1.2953    4.5159   19.5128 C   0  0  0  0  0  0
    1.0058    5.8824   19.5033 C   0  0  0  0  0  0
    1.1789    6.6133   18.3315 C   0  0  0  0  0  0
    1.6457    5.9951   17.1637 C   0  0  0  0  0  0
    1.8330    6.7827   15.9112 C   0  0  0  0  0  0
    1.1118    7.9655   15.6975 C   0  0  0  0  0  0
    1.2834    8.7006   14.5276 C   0  0  0  0  0  0
    2.1808    8.2575   13.5605 C   0  0  0  0  0  0
    2.9069    7.0860   13.7548 C   0  0  0  0  0  0
    2.7320    6.3525   14.9254 C   0  0  0  0  0  0
    1.9372    4.6248   17.1933 C   0  0  0  0  0  0
    1.7673    3.8859   18.3605 C   0  0  0  0  0  0
    4.2937    1.5022   19.4858 N   0  0  0  0  0  0
    5.1307    0.4311   19.2276 N   0  0  0  0  0  0
    6.9510   -2.7418   21.9043 H   0  0  0  0  0  0
    5.4599   -2.1327   22.2254 H   0  0  0  0  0  0
    7.2760   -1.2747   20.0772 H   0  0  0  0  0  0
    5.8314   -2.2987   19.8677 H   0  0  0  0  0  0
    4.6183    0.2391   22.4548 H   0  0  0  0  0  0
    3.1169    2.2557   22.4848 H   0  0  0  0  0  0
    3.6575    3.4458   21.3170 H   0  0  0  0  0  0
   -0.2476    5.2246   21.3060 H   0  0  0  0  0  0
   -0.7448    3.5959   21.5805 H   0  0  0  0  0  0
    2.7260    4.9021   22.7011 H   0  0  0  0  0  0
    3.0842    4.9770   25.3116 H   0  0  0  0  0  0
   -1.1858    3.8870   24.2366 H   0  0  0  0  0  0
    0.6483    6.3761   20.3959 H   0  0  0  0  0  0
    0.9442    7.6679   18.3352 H   0  0  0  0  0  0
    0.4164    8.3248   16.4422 H   0  0  0  0  0  0
    0.7232    9.6108   14.3722 H   0  0  0  0  0  0
    2.3147    8.8269   12.6523 H   0  0  0  0  0  0
    3.6013    6.7462   13.0005 H   0  0  0  0  0  0
    3.2960    5.4408   15.0592 H   0  0  0  0  0  0
    2.3072    4.1256   16.3095 H   0  0  0  0  0  0
    2.0025    2.8309   18.3665 H   0  0  0  0  0  0
    6.7917   -1.1903   22.4201 H   0  0  0  0  0  0
  1  2  1  0  0  0
  1 30  1  0  0  0
  1 31  1  0  0  0
  1 51  1  0  0  0
  2  3  1  0  0  0
  2 32  1  0  0  0
  2 33  1  0  0  0
  3  4  2  0  0  0
  3 29  1  0  0  0
  4  5  1  0  0  0
  4 34  1  0  0  0
  5  6  1  0  0  0
  5 28  1  0  0  0
  6  7  1  0  0  0
  6 35  1  0  0  0
  6 36  1  0  0  0
  7  8  2  0  0  0
  7  9  1  0  0  0
  9 10  1  0  0  0
  9 16  1  0  0  0
 10 11  1  0  0  0
 10 37  1  0  0  0
 10 38  1  0  0  0
 11 12  1  0  0  0
 11 15  2  0  0  0
 12 13  2  0  0  0
 12 39  1  0  0  0
 13 14  1  0  0  0
 13 40  1  0  0  0
 14 15  1  0  0  0
 15 41  1  0  0  0
 16 17  2  0  0  0
 16 27  1  0  0  0
 17 18  1  0  0  0
 17 42  1  0  0  0
 18 19  2  0  0  0
 18 43  1  0  0  0
 19 20  1  0  0  0
 19 26  1  0  0  0
 20 21  2  0  0  0
 20 25  1  0  0  0
 21 22  1  0  0  0
 21 44  1  0  0  0
 22 23  2  0  0  0
 22 45  1  0  0  0
 23 24  1  0  0  0
 23 46  1  0  0  0
 24 25  2  0  0  0
 24 47  1  0  0  0
 25 48  1  0  0  0
 26 27  2  0  0  0
 26 49  1  0  0  0
 27 50  1  0  0  0
 28 29  2  0  0  0
M  CHG  1   1   1
M  END
> <s_m_entry_id>
3774

> <s_m_entry_name>
Compounds-withfrags-for-validation-docking.1818

> <s_m_Source_Path>
/home/rodolpho/data/melina/maestro/glide-dock_XP_5RGK_M-PRO_VALIDATION

> <s_m_Source_File>
glide-dock_XP_5RGK_M-PRO_VALIDATION_pv.maegz

> <i_m_Source_File_Index>
3774

> <CID>
ALP-POS-c0c213c9-5

> <Potency>
99.5

> <pIC50>
4.00218

> <Source>
Postera

> <smiles>
NCc1cn(CC(=O)N(Cc2ccsc2)c2ccc(-c3ccccc3)cc2)nn1

> <Outcome>
Inactive

> <StandardizerResult>
Clear Stereo (ID: ClearStereo)
Wedge Clean (ID: WedgeClean)
Mesomerize (ID: Mesomerize)
Tautomerize (ID: Tautomerize)
Aromatize (ID: Aromatize)
Add Explicit Hydrogens (ID: AddExplicitH)
Neutralize (ID: Neutralize)
Clean 2D (ID: Clean2D)

> <chiral flag>
0

> <version>
0

> <i_lp_mmshare_version>
41011

> <i_f3d_flags>
0

> <s_epik_input>
W05IMl1bQ0gyXWMxW2NIXW4obm4xKVtDSDJdQyg9TylOKFtDSDJdYzJbY0hdW2NIXXNbY0hdMiljM1tjSF1bY0hdYyhbY0hdW2NIXTMpLWM0W2NIXVtjSF1bY0hdW2NIXVtjSF00

> <s_epik_cmdline>
J2VwaWtfcHl0aG9uJywgJy1waHQnLCAnMC41JywgJy1waCcsICc3LjQnLCAnLXRuJywgJzgnLCAnLW1hJywgJzIwMCcsICctaW1hZScsICc8aW5maWxlLm1hZT4nLCAnLW9tYWUnLCAnPG91dGZpbGUubWFlPic=

> <r_lp_tautomer_probability>
1.0

> <r_epik_Ionization_Penalty>
0.1375

> <r_epik_Ionization_Penalty_Charging>
0.1375

> <r_epik_Ionization_Penalty_Neutral>
0.0

> <r_epik_State_Penalty>
0.1269

> <r_epik_Charging_Adjusted_Penalty>
0.26441

> <i_epik_Tot_Q>
1

> <i_epik_Tot_abs_Q>
1

> <s_lp_Force_Field>
OPLS3

> <r_lp_Energy>
38.9447

> <b_lp_Chiralities_Consistent>
1

> <s_lp_Variant>
ligprep_COVID_compounds-withfrags-smallmolecules-forvalidation.maegz:99-1

> <i_glide_original_lignum>
288

> <s_i_glide_gridfile>
glide-grid_5RGK_M-PRO_COVID

> <i_i_glide_lignum>
288

> <r_i_docking_score>
-1.8432449436499

> <r_i_glide_ligand_efficiency>
-0.0635601704706862

> <r_i_glide_ligand_efficiency_sa>
-0.195276980961365

> <r_i_glide_ligand_efficiency_ln>
-0.42205635143695

> <r_glide_XP_GScore>
-1.9701179436499

> <r_i_glide_gscore>
-1.9701179436499

> <r_i_glide_evdw>
-23.5648002624512

> <r_i_glide_ecoul>
-12.3634080886841

> <r_i_glide_energy>
-35.9282083511353

> <r_i_glide_einternal>
3.80509948730469

> <r_i_glide_emodel>
-43.2820606761018

> <r_glide_XP_HBond>
-0.9

> <i_i_glide_confnum>
1

> <i_i_glide_posenum>
1

> <r_i_glide_eff_state_penalty>
0.126873

> <i_glide_XP_PoseRank>
1

> <MW>
403.15

> <cLogP>
3.7

> <TPSA>
77.04

> <Rotatable Bonds>
7

> <Fraction sp3>
0.14

> <HBA>
6

> <HBD>
1

> <Submission Fragments>
x0072

> <s_epik_Chemistry_Notes>


> <Structure ID>


$$$$
ligprep_COVID_compounds-withfrags-smallmolecules-forvalidation.maegz:61
                    3D
 Structure written by MMmdl.
 59 63  0  0  1  0            999 V2000
    9.9734   -6.0537   25.3526 C   0  0  0  0  0  0
    9.1080   -4.8888   25.3123 N   0  0  0  0  0  0
    8.1640   -4.5705   24.3728 C   0  0  0  0  0  0
    7.5998   -3.3682   24.7694 C   0  0  0  0  0  0
    6.5048   -2.5721   24.0877 C   0  0  0  0  0  0
    6.7895   -1.1264   24.0671 N   0  0  0  0  0  0
    8.0586   -0.6687   24.2754 C   0  0  0  0  0  0
    9.0482   -1.4000   24.1942 O   0  0  0  0  0  0
    8.3072    0.8151   24.6415 C   0  0  0  0  0  0
    9.6174    1.3743   24.2832 N   0  0  0  0  0  0
   10.7219    0.6081   24.1275 N   0  0  0  0  0  0
   11.7779    1.4147   23.7698 N   0  0  0  0  0  0
   11.3057    2.6900   23.6963 C   0  0  0  0  0  0
   11.9644    3.8839   23.3729 C   0  0  0  0  0  0
   11.2166    5.0621   23.3720 C   0  0  0  0  0  0
    9.8551    5.0566   23.6805 C   0  0  0  0  0  0
    9.1736    3.8807   24.0062 C   0  0  0  0  0  0
    9.9243    2.6989   24.0114 C   0  0  0  0  0  0
    5.7851   -0.3034   23.5276 C   0  0  0  0  0  0
    4.5510   -0.1691   24.1704 C   0  0  0  0  0  0
    3.5831    0.6770   23.6381 C   0  0  0  0  0  0
    3.8371    1.4080   22.4672 C   0  0  0  0  0  0
    2.8958    2.2734   21.9148 N   0  0  0  0  0  0
    2.7717    2.2886   20.4443 C   0  0  0  0  0  0
    1.3908    2.8065   19.9867 C   0  0  0  0  0  0
    1.1071    4.2118   20.5373 C   0  0  0  0  0  0
    1.3744    4.2554   22.0488 C   0  0  0  0  0  0
    2.7569    3.6614   22.3966 C   0  0  0  0  0  0
    5.0791    1.2602   21.8357 C   0  0  0  0  0  0
    6.0506    0.4136   22.3608 C   0  0  0  0  0  0
    8.2660   -3.0913   25.9741 C   0  0  0  0  0  0
    9.1683   -3.9893   26.2988 N   0  0  0  0  0  0
    9.9051   -6.6004   24.4113 H   0  0  0  0  0  0
    9.6640   -6.7058   26.1702 H   0  0  0  0  0  0
   11.0065   -5.7391   25.5068 H   0  0  0  0  0  0
    7.9886   -5.2070   23.5181 H   0  0  0  0  0  0
    6.3604   -2.9089   23.0605 H   0  0  0  0  0  0
    5.5394   -2.7606   24.5604 H   0  0  0  0  0  0
    7.5395    1.4773   24.2412 H   0  0  0  0  0  0
    8.2148    0.8990   25.7255 H   0  0  0  0  0  0
   13.0173    3.8960   23.1315 H   0  0  0  0  0  0
   11.7006    5.9964   23.1276 H   0  0  0  0  0  0
    9.3123    5.9905   23.6682 H   0  0  0  0  0  0
    8.1201    3.8932   24.2447 H   0  0  0  0  0  0
    4.3453   -0.7069   25.0845 H   0  0  0  0  0  0
    2.6422    0.7692   24.1601 H   0  0  0  0  0  0
    3.5658    2.9057   20.0197 H   0  0  0  0  0  0
    2.9122    1.2862   20.0380 H   0  0  0  0  0  0
    1.3385    2.8174   18.8974 H   0  0  0  0  0  0
    0.6150    2.1158   20.3210 H   0  0  0  0  0  0
    1.7541    4.9331   20.0356 H   0  0  0  0  0  0
    0.0815    4.5113   20.3186 H   0  0  0  0  0  0
    1.3076    5.2825   22.4087 H   0  0  0  0  0  0
    0.5974    3.6980   22.5748 H   0  0  0  0  0  0
    2.8721    3.6838   23.4814 H   0  0  0  0  0  0
    3.5527    4.2803   21.9778 H   0  0  0  0  0  0
    5.2984    1.8046   20.9285 H   0  0  0  0  0  0
    7.0050    0.3199   21.8626 H   0  0  0  0  0  0
    8.0896   -2.2279   26.5991 H   0  0  0  0  0  0
  1  2  1  0  0  0
  1 33  1  0  0  0
  1 34  1  0  0  0
  1 35  1  0  0  0
  2  3  1  0  0  0
  2 32  1  0  0  0
  3  4  2  0  0  0
  3 36  1  0  0  0
  4  5  1  0  0  0
  4 31  1  0  0  0
  5  6  1  0  0  0
  5 37  1  0  0  0
  5 38  1  0  0  0
  6  7  1  0  0  0
  6 19  1  0  0  0
  7  8  2  0  0  0
  7  9  1  0  0  0
  9 10  1  0  0  0
  9 39  1  0  0  0
  9 40  1  0  0  0
 10 11  1  0  0  0
 10 18  1  0  0  0
 11 12  2  0  0  0
 12 13  1  0  0  0
 13 14  2  0  0  0
 13 18  1  0  0  0
 14 15  1  0  0  0
 14 41  1  0  0  0
 15 16  2  0  0  0
 15 42  1  0  0  0
 16 17  1  0  0  0
 16 43  1  0  0  0
 17 18  2  0  0  0
 17 44  1  0  0  0
 19 20  2  0  0  0
 19 30  1  0  0  0
 20 21  1  0  0  0
 20 45  1  0  0  0
 21 22  2  0  0  0
 21 46  1  0  0  0
 22 23  1  0  0  0
 22 29  1  0  0  0
 23 24  1  0  0  0
 23 28  1  0  0  0
 24 25  1  0  0  0
 24 47  1  0  0  0
 24 48  1  0  0  0
 25 26  1  0  0  0
 25 49  1  0  0  0
 25 50  1  0  0  0
 26 27  1  0  0  0
 26 51  1  0  0  0
 26 52  1  0  0  0
 27 28  1  0  0  0
 27 53  1  0  0  0
 27 54  1  0  0  0
 28 55  1  0  0  0
 28 56  1  0  0  0
 29 30  2  0  0  0
 29 57  1  0  0  0
 30 58  1  0  0  0
 31 32  2  0  0  0
 31 59  1  0  0  0
M  END
> <s_m_entry_id>
3788

> <s_m_entry_name>
Compounds-withfrags-for-validation-docking.1856

> <s_m_Source_Path>
/home/rodolpho/data/melina/maestro/glide-dock_XP_5RGK_M-PRO_VALIDATION

> <s_m_Source_File>
glide-dock_XP_5RGK_M-PRO_VALIDATION_pv.maegz

> <i_m_Source_File_Index>
3788

> <CID>
ALP-POS-7c842ab8-1

> <Potency>
99.5

> <pIC50>
4.00218

> <Source>
Postera

> <smiles>
Cn1cc(CN(C(=O)Cn2nnc3ccccc32)c2ccc(N3CCCCC3)cc2)cn1

> <Outcome>
Inactive

> <StandardizerResult>
Clear Stereo (ID: ClearStereo)
Wedge Clean (ID: WedgeClean)
Mesomerize (ID: Mesomerize)
Tautomerize (ID: Tautomerize)
Aromatize (ID: Aromatize)
Add Explicit Hydrogens (ID: AddExplicitH)
Neutralize (ID: Neutralize)
Clean 2D (ID: Clean2D)

> <chiral flag>
0

> <version>
0

> <i_lp_mmshare_version>
41011

> <i_f3d_flags>
0

> <s_epik_input>
W2NIXTFbY0hdW2NIXVtjSF1jKGMxMiluKG5uMilbQ0gyXUMoPU8pTihbQ0gyXWMoW2NIXW4zKVtjSF1uM1tDSDNdKWM0W2NIXVtjSF1jKFtjSF1bY0hdNClONVtDSDJdW0NIMl1bQ0gyXVtDSDJdW0NIMl01

> <s_epik_cmdline>
J2VwaWtfcHl0aG9uJywgJy1waHQnLCAnMC41JywgJy1waCcsICc3LjQnLCAnLXRuJywgJzgnLCAnLW1hJywgJzIwMCcsICctaW1hZScsICc8aW5maWxlLm1hZT4nLCAnLW9tYWUnLCAnPG91dGZpbGUubWFlPic=

> <r_lp_tautomer_probability>
1.0

> <r_epik_Ionization_Penalty>
0.0141

> <r_epik_Ionization_Penalty_Charging>
0.0

> <r_epik_Ionization_Penalty_Neutral>
0.0141

> <r_epik_State_Penalty>
0.011

> <r_epik_Charging_Adjusted_Penalty>
0.010966

> <i_epik_Tot_Q>
0

> <i_epik_Tot_abs_Q>
0

> <s_lp_Force_Field>
OPLS3

> <r_lp_Energy>
48.6278

> <b_lp_Chiralities_Consistent>
1

> <s_lp_Variant>
ligprep_COVID_compounds-withfrags-smallmolecules-forvalidation.maegz:61-1

> <i_glide_original_lignum>
233

> <s_i_glide_gridfile>
glide-grid_5RGK_M-PRO_COVID

> <i_i_glide_lignum>
233

> <r_i_docking_score>
-1.74566586242792

> <r_i_glide_ligand_efficiency>
-0.0545520582008724

> <r_i_glide_ligand_efficiency_sa>
-0.173191988950111

> <r_i_glide_ligand_efficiency_ln>
-0.390902171651821

> <r_glide_XP_GScore>
-1.75663186242792

> <r_i_glide_gscore>
-1.75663186242792

> <r_i_glide_evdw>
-34.5106887817383

> <r_i_glide_ecoul>
-8.68485069274902

> <r_i_glide_energy>
-43.1955394744873

> <r_i_glide_einternal>
6.63841009140015

> <r_i_glide_emodel>
-57.459430977194

> <r_glide_XP_HBond>
-0.437406412294882

> <i_i_glide_confnum>
2

> <i_i_glide_posenum>
49

> <r_i_glide_eff_state_penalty>
0.010966

> <i_glide_XP_PoseRank>
1

> <MW>
429.23

> <cLogP>
3.39

> <TPSA>
72.08

> <Rotatable Bonds>
6

> <Fraction sp3>
0.33

> <HBA>
7

> <HBD>
0

> <s_epik_Chemistry_Notes>


> <Structure ID>


> <Submission Fragments>


$$$$
